taskid: 0 hostname: x1006c0s0b0n0
 module_io_quilt_old.F        2931 F
Quilting with   1 groups of   0 I/O tasks.
 Ntasks in X           16 , ntasks in Y           24
*************************************
Configuring physics suite 'conus'

         mp_physics:      8
         cu_physics:      0*
      ra_lw_physics:      4
      ra_sw_physics:      4
     bl_pbl_physics:      2
  sf_sfclay_physics:      2
 sf_surface_physics:      2

(* = option overrides suite setting)
*************************************
Domain # 1: dx =  2500.000 m
WRF V4.7.1 MODEL
No git found or not a git repository, git commit version not available.
 *************************************
 Parent domain
 ids,ide,jds,jde            1        1501           1        1201
 ims,ime,jms,jme           -4         101          -4          57
 ips,ipe,jps,jpe            1          94           1          50
 *************************************
DYNAMICS OPTION: Eulerian Mass Coordinate
 alloc_space_field: domain            1 ,             223613180  bytes allocated
med_initialdata_input: calling input_input
 Input data is acceptable to use: wrfinput_d01
 CURRENT DATE          = 2019-11-26_18:00:00
 SIMULATION START DATE = 2019-11-26_18:00:00
Timing for processing wrfinput file (stream 0) for domain        1:   26.61063 elapsed seconds
Max map factor in domain 1 =  1.02. Scale the dt in the model accordingly.
 D01: Time step                              =    15.0000000      (s)
 D01: Grid Distance                          =    2.50000000      (km)
 D01: Grid Distance Ratio dt/dx              =    6.00000000      (s/km)
 D01: Ratio Including Maximum Map Factor     =    6.13815594      (s/km)
 D01: NML defined reasonable_time_step_ratio =    6.00000000
 Climate GHG input from file from year         1765  to         2499
 CO2   range =    277.91300000000001        579.26400000000001       ppm
 N2O   range =    274.37200000000001        359.79800000000000       ppb
 CH4   range =    738.98599999999999        997.31100000000004       ppb
 CFC11 range =    0.0000000000000000        1.4000000000000000E-002  ppt
 CFC12 range =    0.0000000000000000        2.8809999999999998       ppt
 Normal ending of CAMtr_volume_mixing_ratio file
 GHG annual values from CAM trace gas file
 Year =         2019 , Julian day =          330
 CO2   =    4.1280616288937283E-004  volume mixing ratio
 N2O   =    3.3164731848847696E-007  volume mixing ratio
 CH4   =    1.9046224215321381E-006  volume mixing ratio
 CFC11 =    2.1972312207550427E-010  volume mixing ratio
 CFC12 =    4.9756474391800364E-010  volume mixing ratio
INPUT LandUse = "MODIFIED_IGBP_MODIS_NOAH"
 LANDUSE TYPE = "MODIFIED_IGBP_MODIS_NOAH" FOUND          61  CATEGORIES           2  SEASONS WATER CATEGORY =           17  SNOW CATEGORY =           15
INITIALIZE THREE Noah LSM RELATED TABLES
Skipping over LUTYPE = USGS
 LANDUSE TYPE = MODIFIED_IGBP_MODIS_NOAH FOUND          20  CATEGORIES
 INPUT SOIL TEXTURE CLASSIFICATION = STAS
 SOIL TEXTURE CLASSIFICATION = STAS FOUND          19  CATEGORIES
ThompMP: read qr_acr_qg_V4.dat     instead of computing
ThompMP: read qr_acr_qsV2.dat instead of computing
ThompMP: read freezeH2O.dat instead of computing
 mediation_integrate.G        1249 DATASET=HISTORY
 mediation_integrate.G        1250  grid%id            1  grid%oid            1
Timing for Writing wrfout_d01_2019-11-26_18:00:00 for domain        1:    4.82968 elapsed seconds
 Input data is acceptable to use: wrfbdy_d01
Timing for processing lateral boundary for domain        1:    1.18743 elapsed seconds
WRF NUMBER OF TILES FROM OMP_GET_MAX_THREADS =   4
 Tile Strategy is not specified. Assuming 1D-Y
WRF TILE   1 IS      1 IE     94 JS      1 JE     13
WRF TILE   2 IS      1 IE     94 JS     14 JE     25
WRF TILE   3 IS      1 IE     94 JS     26 JE     37
WRF TILE   4 IS      1 IE     94 JS     38 JE     50
WRF NUMBER OF TILES =   4
 ----------------------------------------
 W-DAMPING  BEGINS AT W-COURANT NUMBER =    1.00000000
 ----------------------------------------
Timing for main: time 2019-11-26_18:00:15 on domain   1:    8.07820 elapsed seconds
Timing for main: time 2019-11-26_18:00:30 on domain   1:    0.19380 elapsed seconds
Timing for main: time 2019-11-26_18:00:45 on domain   1:    0.19106 elapsed seconds
Timing for main: time 2019-11-26_18:01:00 on domain   1:    0.19063 elapsed seconds
Timing for main: time 2019-11-26_18:01:15 on domain   1:    0.19289 elapsed seconds
Timing for main: time 2019-11-26_18:01:30 on domain   1:    0.19437 elapsed seconds
Timing for main: time 2019-11-26_18:01:45 on domain   1:    0.19375 elapsed seconds
Timing for main: time 2019-11-26_18:02:00 on domain   1:    0.19309 elapsed seconds
Timing for main: time 2019-11-26_18:02:15 on domain   1:    0.19461 elapsed seconds
Timing for main: time 2019-11-26_18:02:30 on domain   1:    0.19639 elapsed seconds
Timing for main: time 2019-11-26_18:02:45 on domain   1:    0.19561 elapsed seconds
Timing for main: time 2019-11-26_18:03:00 on domain   1:    0.19531 elapsed seconds
Timing for main: time 2019-11-26_18:03:15 on domain   1:    0.19321 elapsed seconds
Timing for main: time 2019-11-26_18:03:30 on domain   1:    0.20063 elapsed seconds
Timing for main: time 2019-11-26_18:03:45 on domain   1:    0.19987 elapsed seconds
Timing for main: time 2019-11-26_18:04:00 on domain   1:    0.19758 elapsed seconds
Timing for main: time 2019-11-26_18:04:15 on domain   1:    0.19597 elapsed seconds
Timing for main: time 2019-11-26_18:04:30 on domain   1:    0.19529 elapsed seconds
Timing for main: time 2019-11-26_18:04:45 on domain   1:    0.20519 elapsed seconds
Timing for main: time 2019-11-26_18:05:00 on domain   1:    0.19432 elapsed seconds
Timing for main: time 2019-11-26_18:05:15 on domain   1:    0.19890 elapsed seconds
Timing for main: time 2019-11-26_18:05:30 on domain   1:    0.19556 elapsed seconds
Timing for main: time 2019-11-26_18:05:45 on domain   1:    0.19564 elapsed seconds
Timing for main: time 2019-11-26_18:06:00 on domain   1:    0.20356 elapsed seconds
Timing for main: time 2019-11-26_18:06:15 on domain   1:    0.19564 elapsed seconds
Timing for main: time 2019-11-26_18:06:30 on domain   1:    0.19757 elapsed seconds
Timing for main: time 2019-11-26_18:06:45 on domain   1:    0.19521 elapsed seconds
Timing for main: time 2019-11-26_18:07:00 on domain   1:    0.19654 elapsed seconds
Timing for main: time 2019-11-26_18:07:15 on domain   1:    0.19646 elapsed seconds
Timing for main: time 2019-11-26_18:07:30 on domain   1:    0.19675 elapsed seconds
Timing for main: time 2019-11-26_18:07:45 on domain   1:    0.19547 elapsed seconds
Timing for main: time 2019-11-26_18:08:00 on domain   1:    0.24786 elapsed seconds
Timing for main: time 2019-11-26_18:08:15 on domain   1:    0.20275 elapsed seconds
Timing for main: time 2019-11-26_18:08:30 on domain   1:    0.19492 elapsed seconds
Timing for main: time 2019-11-26_18:08:45 on domain   1:    0.19717 elapsed seconds
Timing for main: time 2019-11-26_18:09:00 on domain   1:    0.19684 elapsed seconds
Timing for main: time 2019-11-26_18:09:15 on domain   1:    0.19763 elapsed seconds
Timing for main: time 2019-11-26_18:09:30 on domain   1:    0.19733 elapsed seconds
Timing for main: time 2019-11-26_18:09:45 on domain   1:    0.19737 elapsed seconds
Timing for main: time 2019-11-26_18:10:00 on domain   1:    0.19658 elapsed seconds
Timing for main: time 2019-11-26_18:10:15 on domain   1:    1.91805 elapsed seconds
Timing for main: time 2019-11-26_18:10:30 on domain   1:    0.19596 elapsed seconds
Timing for main: time 2019-11-26_18:10:45 on domain   1:    0.19554 elapsed seconds
Timing for main: time 2019-11-26_18:11:00 on domain   1:    0.19547 elapsed seconds
Timing for main: time 2019-11-26_18:11:15 on domain   1:    0.19889 elapsed seconds
Timing for main: time 2019-11-26_18:11:30 on domain   1:    0.19836 elapsed seconds
Timing for main: time 2019-11-26_18:11:45 on domain   1:    0.19698 elapsed seconds
Timing for main: time 2019-11-26_18:12:00 on domain   1:    0.19872 elapsed seconds
Timing for main: time 2019-11-26_18:12:15 on domain   1:    0.19822 elapsed seconds
Timing for main: time 2019-11-26_18:12:30 on domain   1:    0.19766 elapsed seconds
Timing for main: time 2019-11-26_18:12:45 on domain   1:    0.19806 elapsed seconds
Timing for main: time 2019-11-26_18:13:00 on domain   1:    0.19848 elapsed seconds
Timing for main: time 2019-11-26_18:13:15 on domain   1:    0.19746 elapsed seconds
Timing for main: time 2019-11-26_18:13:30 on domain   1:    0.19811 elapsed seconds
Timing for main: time 2019-11-26_18:13:45 on domain   1:    0.20111 elapsed seconds
Timing for main: time 2019-11-26_18:14:00 on domain   1:    0.20077 elapsed seconds
Timing for main: time 2019-11-26_18:14:15 on domain   1:    0.20008 elapsed seconds
Timing for main: time 2019-11-26_18:14:30 on domain   1:    0.19865 elapsed seconds
Timing for main: time 2019-11-26_18:14:45 on domain   1:    0.20345 elapsed seconds
Timing for main: time 2019-11-26_18:15:00 on domain   1:    0.19957 elapsed seconds
Timing for main: time 2019-11-26_18:15:15 on domain   1:    0.20028 elapsed seconds
Timing for main: time 2019-11-26_18:15:30 on domain   1:    0.19883 elapsed seconds
Timing for main: time 2019-11-26_18:15:45 on domain   1:    0.20563 elapsed seconds
Timing for main: time 2019-11-26_18:16:00 on domain   1:    0.19946 elapsed seconds
Timing for main: time 2019-11-26_18:16:15 on domain   1:    0.20005 elapsed seconds
Timing for main: time 2019-11-26_18:16:30 on domain   1:    0.19921 elapsed seconds
Timing for main: time 2019-11-26_18:16:45 on domain   1:    0.20141 elapsed seconds
Timing for main: time 2019-11-26_18:17:00 on domain   1:    0.20035 elapsed seconds
Timing for main: time 2019-11-26_18:17:15 on domain   1:    0.20026 elapsed seconds
Timing for main: time 2019-11-26_18:17:30 on domain   1:    0.20171 elapsed seconds
Timing for main: time 2019-11-26_18:17:45 on domain   1:    0.20150 elapsed seconds
Timing for main: time 2019-11-26_18:18:00 on domain   1:    0.20102 elapsed seconds
Timing for main: time 2019-11-26_18:18:15 on domain   1:    0.20161 elapsed seconds
Timing for main: time 2019-11-26_18:18:30 on domain   1:    0.20706 elapsed seconds
Timing for main: time 2019-11-26_18:18:45 on domain   1:    0.20608 elapsed seconds
Timing for main: time 2019-11-26_18:19:00 on domain   1:    0.20437 elapsed seconds
Timing for main: time 2019-11-26_18:19:15 on domain   1:    0.20161 elapsed seconds
Timing for main: time 2019-11-26_18:19:30 on domain   1:    0.20204 elapsed seconds
Timing for main: time 2019-11-26_18:19:45 on domain   1:    0.20604 elapsed seconds
Timing for main: time 2019-11-26_18:20:00 on domain   1:    0.20278 elapsed seconds
Timing for main: time 2019-11-26_18:20:15 on domain   1:    1.95192 elapsed seconds
Timing for main: time 2019-11-26_18:20:30 on domain   1:    0.20199 elapsed seconds
Timing for main: time 2019-11-26_18:20:45 on domain   1:    0.20289 elapsed seconds
Timing for main: time 2019-11-26_18:21:00 on domain   1:    0.20326 elapsed seconds
Timing for main: time 2019-11-26_18:21:15 on domain   1:    0.20586 elapsed seconds
Timing for main: time 2019-11-26_18:21:30 on domain   1:    0.20705 elapsed seconds
Timing for main: time 2019-11-26_18:21:45 on domain   1:    0.20457 elapsed seconds
Timing for main: time 2019-11-26_18:22:00 on domain   1:    0.20267 elapsed seconds
Timing for main: time 2019-11-26_18:22:15 on domain   1:    0.20778 elapsed seconds
Timing for main: time 2019-11-26_18:22:30 on domain   1:    0.20709 elapsed seconds
Timing for main: time 2019-11-26_18:22:45 on domain   1:    0.20553 elapsed seconds
Timing for main: time 2019-11-26_18:23:00 on domain   1:    0.20466 elapsed seconds
Timing for main: time 2019-11-26_18:23:15 on domain   1:    0.20881 elapsed seconds
Timing for main: time 2019-11-26_18:23:30 on domain   1:    0.20840 elapsed seconds
Timing for main: time 2019-11-26_18:23:45 on domain   1:    0.20726 elapsed seconds
Timing for main: time 2019-11-26_18:24:00 on domain   1:    0.20700 elapsed seconds
Timing for main: time 2019-11-26_18:24:15 on domain   1:    0.20756 elapsed seconds
Timing for main: time 2019-11-26_18:24:30 on domain   1:    0.20722 elapsed seconds
Timing for main: time 2019-11-26_18:24:45 on domain   1:    0.20830 elapsed seconds
Timing for main: time 2019-11-26_18:25:00 on domain   1:    0.20782 elapsed seconds
Timing for main: time 2019-11-26_18:25:15 on domain   1:    0.20734 elapsed seconds
Timing for main: time 2019-11-26_18:25:30 on domain   1:    0.20629 elapsed seconds
Timing for main: time 2019-11-26_18:25:45 on domain   1:    0.21771 elapsed seconds
Timing for main: time 2019-11-26_18:26:00 on domain   1:    0.20558 elapsed seconds
Timing for main: time 2019-11-26_18:26:15 on domain   1:    0.20667 elapsed seconds
Timing for main: time 2019-11-26_18:26:30 on domain   1:    0.21473 elapsed seconds
Timing for main: time 2019-11-26_18:26:45 on domain   1:    0.20839 elapsed seconds
Timing for main: time 2019-11-26_18:27:00 on domain   1:    0.21048 elapsed seconds
Timing for main: time 2019-11-26_18:27:15 on domain   1:    0.21142 elapsed seconds
Timing for main: time 2019-11-26_18:27:30 on domain   1:    0.21044 elapsed seconds
Timing for main: time 2019-11-26_18:27:45 on domain   1:    0.20727 elapsed seconds
Timing for main: time 2019-11-26_18:28:00 on domain   1:    0.21364 elapsed seconds
Timing for main: time 2019-11-26_18:28:15 on domain   1:    0.21227 elapsed seconds
Timing for main: time 2019-11-26_18:28:30 on domain   1:    0.21488 elapsed seconds
Timing for main: time 2019-11-26_18:28:45 on domain   1:    0.71751 elapsed seconds
Timing for main: time 2019-11-26_18:29:00 on domain   1:    0.23033 elapsed seconds
Timing for main: time 2019-11-26_18:29:15 on domain   1:    0.20791 elapsed seconds
Timing for main: time 2019-11-26_18:29:30 on domain   1:    0.20788 elapsed seconds
Timing for main: time 2019-11-26_18:29:45 on domain   1:    0.21036 elapsed seconds
Timing for main: time 2019-11-26_18:30:00 on domain   1:    0.21174 elapsed seconds
Timing for main: time 2019-11-26_18:30:15 on domain   1:    2.01657 elapsed seconds
Timing for main: time 2019-11-26_18:30:30 on domain   1:    0.20838 elapsed seconds
Timing for main: time 2019-11-26_18:30:45 on domain   1:    0.20963 elapsed seconds
Timing for main: time 2019-11-26_18:31:00 on domain   1:    0.21205 elapsed seconds
Timing for main: time 2019-11-26_18:31:15 on domain   1:    0.21825 elapsed seconds
Timing for main: time 2019-11-26_18:31:30 on domain   1:    0.21421 elapsed seconds
Timing for main: time 2019-11-26_18:31:45 on domain   1:    0.21260 elapsed seconds
Timing for main: time 2019-11-26_18:32:00 on domain   1:    0.21430 elapsed seconds
Timing for main: time 2019-11-26_18:32:15 on domain   1:    0.21358 elapsed seconds
Timing for main: time 2019-11-26_18:32:30 on domain   1:    0.21601 elapsed seconds
Timing for main: time 2019-11-26_18:32:45 on domain   1:    0.21417 elapsed seconds
Timing for main: time 2019-11-26_18:33:00 on domain   1:    0.21391 elapsed seconds
Timing for main: time 2019-11-26_18:33:15 on domain   1:    0.21129 elapsed seconds
Timing for main: time 2019-11-26_18:33:30 on domain   1:    0.21569 elapsed seconds
Timing for main: time 2019-11-26_18:33:45 on domain   1:    0.21542 elapsed seconds
Timing for main: time 2019-11-26_18:34:00 on domain   1:    0.21580 elapsed seconds
Timing for main: time 2019-11-26_18:34:15 on domain   1:    0.21440 elapsed seconds
Timing for main: time 2019-11-26_18:34:30 on domain   1:    0.80908 elapsed seconds
Timing for main: time 2019-11-26_18:34:45 on domain   1:    0.23455 elapsed seconds
Timing for main: time 2019-11-26_18:35:00 on domain   1:    0.21120 elapsed seconds
Timing for main: time 2019-11-26_18:35:15 on domain   1:    0.21147 elapsed seconds
Timing for main: time 2019-11-26_18:35:30 on domain   1:    0.21130 elapsed seconds
Timing for main: time 2019-11-26_18:35:45 on domain   1:    0.21334 elapsed seconds
Timing for main: time 2019-11-26_18:36:00 on domain   1:    0.21543 elapsed seconds
Timing for main: time 2019-11-26_18:36:15 on domain   1:    0.21552 elapsed seconds
Timing for main: time 2019-11-26_18:36:30 on domain   1:    0.21597 elapsed seconds
Timing for main: time 2019-11-26_18:36:45 on domain   1:    0.21252 elapsed seconds
Timing for main: time 2019-11-26_18:37:00 on domain   1:    0.21854 elapsed seconds
Timing for main: time 2019-11-26_18:37:15 on domain   1:    0.21390 elapsed seconds
Timing for main: time 2019-11-26_18:37:30 on domain   1:    0.21351 elapsed seconds
Timing for main: time 2019-11-26_18:37:45 on domain   1:    0.21278 elapsed seconds
Timing for main: time 2019-11-26_18:38:00 on domain   1:    0.21649 elapsed seconds
Timing for main: time 2019-11-26_18:38:15 on domain   1:    0.21356 elapsed seconds
Timing for main: time 2019-11-26_18:38:30 on domain   1:    0.21619 elapsed seconds
Timing for main: time 2019-11-26_18:38:45 on domain   1:    0.21600 elapsed seconds
Timing for main: time 2019-11-26_18:39:00 on domain   1:    0.21591 elapsed seconds
Timing for main: time 2019-11-26_18:39:15 on domain   1:    0.21572 elapsed seconds
Timing for main: time 2019-11-26_18:39:30 on domain   1:    0.21466 elapsed seconds
Timing for main: time 2019-11-26_18:39:45 on domain   1:    0.21626 elapsed seconds
Timing for main: time 2019-11-26_18:40:00 on domain   1:    0.21715 elapsed seconds
Timing for main: time 2019-11-26_18:40:15 on domain   1:    2.04301 elapsed seconds
Timing for main: time 2019-11-26_18:40:30 on domain   1:    0.21290 elapsed seconds
Timing for main: time 2019-11-26_18:40:45 on domain   1:    0.21282 elapsed seconds
Timing for main: time 2019-11-26_18:41:00 on domain   1:    0.21341 elapsed seconds
Timing for main: time 2019-11-26_18:41:15 on domain   1:    0.21560 elapsed seconds
Timing for main: time 2019-11-26_18:41:30 on domain   1:    0.22651 elapsed seconds
Timing for main: time 2019-11-26_18:41:45 on domain   1:    0.21396 elapsed seconds
Timing for main: time 2019-11-26_18:42:00 on domain   1:    0.21517 elapsed seconds
Timing for main: time 2019-11-26_18:42:15 on domain   1:    0.21529 elapsed seconds
Timing for main: time 2019-11-26_18:42:30 on domain   1:    0.21368 elapsed seconds
Timing for main: time 2019-11-26_18:42:45 on domain   1:    0.21542 elapsed seconds
Timing for main: time 2019-11-26_18:43:00 on domain   1:    0.21532 elapsed seconds
Timing for main: time 2019-11-26_18:43:15 on domain   1:    0.21799 elapsed seconds
Timing for main: time 2019-11-26_18:43:30 on domain   1:    0.21400 elapsed seconds
Timing for main: time 2019-11-26_18:43:45 on domain   1:    0.21611 elapsed seconds
Timing for main: time 2019-11-26_18:44:00 on domain   1:    0.21705 elapsed seconds
Timing for main: time 2019-11-26_18:44:15 on domain   1:    0.21727 elapsed seconds
Timing for main: time 2019-11-26_18:44:30 on domain   1:    0.21784 elapsed seconds
Timing for main: time 2019-11-26_18:44:45 on domain   1:    0.21590 elapsed seconds
Timing for main: time 2019-11-26_18:45:00 on domain   1:    0.21588 elapsed seconds
Timing for main: time 2019-11-26_18:45:15 on domain   1:    0.21668 elapsed seconds
Timing for main: time 2019-11-26_18:45:30 on domain   1:    0.21751 elapsed seconds
Timing for main: time 2019-11-26_18:45:45 on domain   1:    0.21931 elapsed seconds
Timing for main: time 2019-11-26_18:46:00 on domain   1:    0.21452 elapsed seconds
Timing for main: time 2019-11-26_18:46:15 on domain   1:    0.21884 elapsed seconds
Timing for main: time 2019-11-26_18:46:30 on domain   1:    0.22323 elapsed seconds
Timing for main: time 2019-11-26_18:46:45 on domain   1:    0.21776 elapsed seconds
Timing for main: time 2019-11-26_18:47:00 on domain   1:    0.21961 elapsed seconds
Timing for main: time 2019-11-26_18:47:15 on domain   1:    0.21677 elapsed seconds
Timing for main: time 2019-11-26_18:47:30 on domain   1:    0.21816 elapsed seconds
Timing for main: time 2019-11-26_18:47:45 on domain   1:    0.21858 elapsed seconds
Timing for main: time 2019-11-26_18:48:00 on domain   1:    0.21748 elapsed seconds
Timing for main: time 2019-11-26_18:48:15 on domain   1:    0.22462 elapsed seconds
Timing for main: time 2019-11-26_18:48:30 on domain   1:    0.22056 elapsed seconds
Timing for main: time 2019-11-26_18:48:45 on domain   1:    0.21887 elapsed seconds
Timing for main: time 2019-11-26_18:49:00 on domain   1:    0.21848 elapsed seconds
Timing for main: time 2019-11-26_18:49:15 on domain   1:    0.22278 elapsed seconds
Timing for main: time 2019-11-26_18:49:30 on domain   1:    0.21591 elapsed seconds
Timing for main: time 2019-11-26_18:49:45 on domain   1:    0.21958 elapsed seconds
Timing for main: time 2019-11-26_18:50:00 on domain   1:    0.21899 elapsed seconds
Timing for main: time 2019-11-26_18:50:15 on domain   1:    2.07143 elapsed seconds
Timing for main: time 2019-11-26_18:50:30 on domain   1:    0.22032 elapsed seconds
Timing for main: time 2019-11-26_18:50:45 on domain   1:    0.21989 elapsed seconds
Timing for main: time 2019-11-26_18:51:00 on domain   1:    0.22045 elapsed seconds
Timing for main: time 2019-11-26_18:51:15 on domain   1:    0.22624 elapsed seconds
Timing for main: time 2019-11-26_18:51:30 on domain   1:    0.22197 elapsed seconds
Timing for main: time 2019-11-26_18:51:45 on domain   1:    0.22307 elapsed seconds
Timing for main: time 2019-11-26_18:52:00 on domain   1:    0.66346 elapsed seconds
Timing for main: time 2019-11-26_18:52:15 on domain   1:    0.36415 elapsed seconds
Timing for main: time 2019-11-26_18:52:30 on domain   1:    0.22054 elapsed seconds
Timing for main: time 2019-11-26_18:52:45 on domain   1:    0.22153 elapsed seconds
Timing for main: time 2019-11-26_18:53:00 on domain   1:    0.22115 elapsed seconds
Timing for main: time 2019-11-26_18:53:15 on domain   1:    0.22176 elapsed seconds
Timing for main: time 2019-11-26_18:53:30 on domain   1:    0.22158 elapsed seconds
Timing for main: time 2019-11-26_18:53:45 on domain   1:    0.22349 elapsed seconds
Timing for main: time 2019-11-26_18:54:00 on domain   1:    0.22279 elapsed seconds
Timing for main: time 2019-11-26_18:54:15 on domain   1:    0.22101 elapsed seconds
Timing for main: time 2019-11-26_18:54:30 on domain   1:    0.22151 elapsed seconds
Timing for main: time 2019-11-26_18:54:45 on domain   1:    0.22170 elapsed seconds
Timing for main: time 2019-11-26_18:55:00 on domain   1:    0.22491 elapsed seconds
Timing for main: time 2019-11-26_18:55:15 on domain   1:    0.22627 elapsed seconds
Timing for main: time 2019-11-26_18:55:30 on domain   1:    0.22234 elapsed seconds
Timing for main: time 2019-11-26_18:55:45 on domain   1:    0.22244 elapsed seconds
Timing for main: time 2019-11-26_18:56:00 on domain   1:    0.22171 elapsed seconds
Timing for main: time 2019-11-26_18:56:15 on domain   1:    0.22370 elapsed seconds
Timing for main: time 2019-11-26_18:56:30 on domain   1:    0.22512 elapsed seconds
Timing for main: time 2019-11-26_18:56:45 on domain   1:    0.22225 elapsed seconds
Timing for main: time 2019-11-26_18:57:00 on domain   1:    0.22283 elapsed seconds
Timing for main: time 2019-11-26_18:57:15 on domain   1:    0.47056 elapsed seconds
Timing for main: time 2019-11-26_18:57:30 on domain   1:    0.88919 elapsed seconds
Timing for main: time 2019-11-26_18:57:45 on domain   1:    0.73875 elapsed seconds
Timing for main: time 2019-11-26_18:58:00 on domain   1:    0.80054 elapsed seconds
Timing for main: time 2019-11-26_18:58:15 on domain   1:    0.21270 elapsed seconds
Timing for main: time 2019-11-26_18:58:30 on domain   1:    0.22373 elapsed seconds
Timing for main: time 2019-11-26_18:58:45 on domain   1:    0.23390 elapsed seconds
Timing for main: time 2019-11-26_18:59:00 on domain   1:    0.22362 elapsed seconds
Timing for main: time 2019-11-26_18:59:15 on domain   1:    0.22495 elapsed seconds
Timing for main: time 2019-11-26_18:59:30 on domain   1:    0.22409 elapsed seconds
Timing for main: time 2019-11-26_18:59:45 on domain   1:    0.22429 elapsed seconds
Timing for main: time 2019-11-26_19:00:00 on domain   1:    0.22561 elapsed seconds
 mediation_integrate.G        1249 DATASET=HISTORY
 mediation_integrate.G        1250  grid%id            1  grid%oid            2
Timing for Writing wrfout_d01_2019-11-26_19:00:00 for domain        1:    4.15684 elapsed seconds
Timing for main: time 2019-11-26_19:00:15 on domain   1:    6.22237 elapsed seconds
Timing for main: time 2019-11-26_19:00:30 on domain   1:    0.22433 elapsed seconds
Timing for main: time 2019-11-26_19:00:45 on domain   1:    0.22404 elapsed seconds
Timing for main: time 2019-11-26_19:01:00 on domain   1:    0.22382 elapsed seconds
Timing for main: time 2019-11-26_19:01:15 on domain   1:    0.23353 elapsed seconds
Timing for main: time 2019-11-26_19:01:30 on domain   1:    0.22423 elapsed seconds
Timing for main: time 2019-11-26_19:01:45 on domain   1:    0.22545 elapsed seconds
Timing for main: time 2019-11-26_19:02:00 on domain   1:    0.22438 elapsed seconds
Timing for main: time 2019-11-26_19:02:15 on domain   1:    0.22753 elapsed seconds
Timing for main: time 2019-11-26_19:02:30 on domain   1:    0.22599 elapsed seconds
Timing for main: time 2019-11-26_19:02:45 on domain   1:    0.22432 elapsed seconds
Timing for main: time 2019-11-26_19:03:00 on domain   1:    0.22681 elapsed seconds
Timing for main: time 2019-11-26_19:03:15 on domain   1:    0.22602 elapsed seconds
Timing for main: time 2019-11-26_19:03:30 on domain   1:    0.22436 elapsed seconds
Timing for main: time 2019-11-26_19:03:45 on domain   1:    0.22521 elapsed seconds
Timing for main: time 2019-11-26_19:04:00 on domain   1:    0.23924 elapsed seconds
Timing for main: time 2019-11-26_19:04:15 on domain   1:    0.22838 elapsed seconds
Timing for main: time 2019-11-26_19:04:30 on domain   1:    0.22449 elapsed seconds
Timing for main: time 2019-11-26_19:04:45 on domain   1:    0.23167 elapsed seconds
Timing for main: time 2019-11-26_19:05:00 on domain   1:    0.22673 elapsed seconds
Timing for main: time 2019-11-26_19:05:15 on domain   1:    0.23890 elapsed seconds
Timing for main: time 2019-11-26_19:05:30 on domain   1:    0.22766 elapsed seconds
Timing for main: time 2019-11-26_19:05:45 on domain   1:    0.23810 elapsed seconds
Timing for main: time 2019-11-26_19:06:00 on domain   1:    0.22638 elapsed seconds
Timing for main: time 2019-11-26_19:06:15 on domain   1:    0.22646 elapsed seconds
Timing for main: time 2019-11-26_19:06:30 on domain   1:    0.22636 elapsed seconds
Timing for main: time 2019-11-26_19:06:45 on domain   1:    0.22685 elapsed seconds
Timing for main: time 2019-11-26_19:07:00 on domain   1:    0.23036 elapsed seconds
Timing for main: time 2019-11-26_19:07:15 on domain   1:    0.22761 elapsed seconds
Timing for main: time 2019-11-26_19:07:30 on domain   1:    0.22751 elapsed seconds
Timing for main: time 2019-11-26_19:07:45 on domain   1:    0.22796 elapsed seconds
Timing for main: time 2019-11-26_19:08:00 on domain   1:    0.22906 elapsed seconds
Timing for main: time 2019-11-26_19:08:15 on domain   1:    0.23011 elapsed seconds
Timing for main: time 2019-11-26_19:08:30 on domain   1:    0.22663 elapsed seconds
Timing for main: time 2019-11-26_19:08:45 on domain   1:    0.22878 elapsed seconds
Timing for main: time 2019-11-26_19:09:00 on domain   1:    0.22886 elapsed seconds
Timing for main: time 2019-11-26_19:09:15 on domain   1:    0.22892 elapsed seconds
Timing for main: time 2019-11-26_19:09:30 on domain   1:    0.23015 elapsed seconds
Timing for main: time 2019-11-26_19:09:45 on domain   1:    0.22950 elapsed seconds
Timing for main: time 2019-11-26_19:10:00 on domain   1:    0.23048 elapsed seconds
Timing for main: time 2019-11-26_19:10:15 on domain   1:    2.09665 elapsed seconds
Timing for main: time 2019-11-26_19:10:30 on domain   1:    0.22856 elapsed seconds
Timing for main: time 2019-11-26_19:10:45 on domain   1:    0.22878 elapsed seconds
Timing for main: time 2019-11-26_19:11:00 on domain   1:    0.22941 elapsed seconds
Timing for main: time 2019-11-26_19:11:15 on domain   1:    0.23030 elapsed seconds
Timing for main: time 2019-11-26_19:11:30 on domain   1:    0.50642 elapsed seconds
Timing for main: time 2019-11-26_19:11:45 on domain   1:    0.71140 elapsed seconds
Timing for main: time 2019-11-26_19:12:00 on domain   1:    0.71487 elapsed seconds
Timing for main: time 2019-11-26_19:12:15 on domain   1:    0.75244 elapsed seconds
Timing for main: time 2019-11-26_19:12:30 on domain   1:    0.36588 elapsed seconds
Timing for main: time 2019-11-26_19:12:45 on domain   1:    0.84955 elapsed seconds
Timing for main: time 2019-11-26_19:13:00 on domain   1:    0.81376 elapsed seconds
Timing for main: time 2019-11-26_19:13:15 on domain   1:    0.34148 elapsed seconds
Timing for main: time 2019-11-26_19:13:30 on domain   1:    0.22800 elapsed seconds
Timing for main: time 2019-11-26_19:13:45 on domain   1:    0.23654 elapsed seconds
Timing for main: time 2019-11-26_19:14:00 on domain   1:    0.23074 elapsed seconds
Timing for main: time 2019-11-26_19:14:15 on domain   1:    0.22994 elapsed seconds
Timing for main: time 2019-11-26_19:14:30 on domain   1:    0.23036 elapsed seconds
Timing for main: time 2019-11-26_19:14:45 on domain   1:    0.22941 elapsed seconds
Timing for main: time 2019-11-26_19:15:00 on domain   1:    0.24806 elapsed seconds
Timing for main: time 2019-11-26_19:15:15 on domain   1:    0.23140 elapsed seconds
Timing for main: time 2019-11-26_19:15:30 on domain   1:    0.23137 elapsed seconds
Timing for main: time 2019-11-26_19:15:45 on domain   1:    0.23198 elapsed seconds
Timing for main: time 2019-11-26_19:16:00 on domain   1:    0.23322 elapsed seconds
Timing for main: time 2019-11-26_19:16:15 on domain   1:    0.23229 elapsed seconds
Timing for main: time 2019-11-26_19:16:30 on domain   1:    0.23188 elapsed seconds
Timing for main: time 2019-11-26_19:16:45 on domain   1:    0.23148 elapsed seconds
Timing for main: time 2019-11-26_19:17:00 on domain   1:    0.23139 elapsed seconds
Timing for main: time 2019-11-26_19:17:15 on domain   1:    0.23046 elapsed seconds
Timing for main: time 2019-11-26_19:17:30 on domain   1:    0.23141 elapsed seconds
Timing for main: time 2019-11-26_19:17:45 on domain   1:    0.23078 elapsed seconds
Timing for main: time 2019-11-26_19:18:00 on domain   1:    0.23166 elapsed seconds
Timing for main: time 2019-11-26_19:18:15 on domain   1:    0.23213 elapsed seconds
Timing for main: time 2019-11-26_19:18:30 on domain   1:    0.23277 elapsed seconds
Timing for main: time 2019-11-26_19:18:45 on domain   1:    0.22879 elapsed seconds
Timing for main: time 2019-11-26_19:19:00 on domain   1:    0.23204 elapsed seconds
Timing for main: time 2019-11-26_19:19:15 on domain   1:    0.23357 elapsed seconds
Timing for main: time 2019-11-26_19:19:30 on domain   1:    0.23048 elapsed seconds
Timing for main: time 2019-11-26_19:19:45 on domain   1:    0.23368 elapsed seconds
Timing for main: time 2019-11-26_19:20:00 on domain   1:    0.23100 elapsed seconds
Timing for main: time 2019-11-26_19:20:15 on domain   1:    2.08919 elapsed seconds
Timing for main: time 2019-11-26_19:20:30 on domain   1:    0.23009 elapsed seconds
Timing for main: time 2019-11-26_19:20:45 on domain   1:    0.23160 elapsed seconds
Timing for main: time 2019-11-26_19:21:00 on domain   1:    0.23111 elapsed seconds
Timing for main: time 2019-11-26_19:21:15 on domain   1:    0.23365 elapsed seconds
Timing for main: time 2019-11-26_19:21:30 on domain   1:    0.23156 elapsed seconds
Timing for main: time 2019-11-26_19:21:45 on domain   1:    0.23325 elapsed seconds
Timing for main: time 2019-11-26_19:22:00 on domain   1:    0.23168 elapsed seconds
Timing for main: time 2019-11-26_19:22:15 on domain   1:    0.23345 elapsed seconds
Timing for main: time 2019-11-26_19:22:30 on domain   1:    0.23268 elapsed seconds
Timing for main: time 2019-11-26_19:22:45 on domain   1:    0.23324 elapsed seconds
Timing for main: time 2019-11-26_19:23:00 on domain   1:    0.23236 elapsed seconds
Timing for main: time 2019-11-26_19:23:15 on domain   1:    0.23425 elapsed seconds
Timing for main: time 2019-11-26_19:23:30 on domain   1:    0.23313 elapsed seconds
Timing for main: time 2019-11-26_19:23:45 on domain   1:    0.23413 elapsed seconds
Timing for main: time 2019-11-26_19:24:00 on domain   1:    0.23363 elapsed seconds
Timing for main: time 2019-11-26_19:24:15 on domain   1:    0.23305 elapsed seconds
Timing for main: time 2019-11-26_19:24:30 on domain   1:    0.23372 elapsed seconds
Timing for main: time 2019-11-26_19:24:45 on domain   1:    0.23741 elapsed seconds
Timing for main: time 2019-11-26_19:25:00 on domain   1:    0.23429 elapsed seconds
Timing for main: time 2019-11-26_19:25:15 on domain   1:    0.23340 elapsed seconds
Timing for main: time 2019-11-26_19:25:30 on domain   1:    0.23339 elapsed seconds
Timing for main: time 2019-11-26_19:25:45 on domain   1:    0.23311 elapsed seconds
Timing for main: time 2019-11-26_19:26:00 on domain   1:    0.23376 elapsed seconds
Timing for main: time 2019-11-26_19:26:15 on domain   1:    0.23439 elapsed seconds
Timing for main: time 2019-11-26_19:26:30 on domain   1:    0.23379 elapsed seconds
Timing for main: time 2019-11-26_19:26:45 on domain   1:    0.24534 elapsed seconds
Timing for main: time 2019-11-26_19:27:00 on domain   1:    0.25941 elapsed seconds
Timing for main: time 2019-11-26_19:27:15 on domain   1:    0.27935 elapsed seconds
Timing for main: time 2019-11-26_19:27:30 on domain   1:    0.27354 elapsed seconds
Timing for main: time 2019-11-26_19:27:45 on domain   1:    0.23838 elapsed seconds
Timing for main: time 2019-11-26_19:28:00 on domain   1:    0.23364 elapsed seconds
Timing for main: time 2019-11-26_19:28:15 on domain   1:    0.23551 elapsed seconds
Timing for main: time 2019-11-26_19:28:30 on domain   1:    0.23264 elapsed seconds
Timing for main: time 2019-11-26_19:28:45 on domain   1:    0.23395 elapsed seconds
Timing for main: time 2019-11-26_19:29:00 on domain   1:    0.23742 elapsed seconds
Timing for main: time 2019-11-26_19:29:15 on domain   1:    0.23523 elapsed seconds
Timing for main: time 2019-11-26_19:29:30 on domain   1:    0.23807 elapsed seconds
Timing for main: time 2019-11-26_19:29:45 on domain   1:    0.23329 elapsed seconds
Timing for main: time 2019-11-26_19:30:00 on domain   1:    0.23382 elapsed seconds
Timing for main: time 2019-11-26_19:30:15 on domain   1:    2.09646 elapsed seconds
Timing for main: time 2019-11-26_19:30:30 on domain   1:    0.23357 elapsed seconds
Timing for main: time 2019-11-26_19:30:45 on domain   1:    0.23514 elapsed seconds
Timing for main: time 2019-11-26_19:31:00 on domain   1:    0.23501 elapsed seconds
Timing for main: time 2019-11-26_19:31:15 on domain   1:    0.23406 elapsed seconds
Timing for main: time 2019-11-26_19:31:30 on domain   1:    0.23370 elapsed seconds
Timing for main: time 2019-11-26_19:31:45 on domain   1:    0.23525 elapsed seconds
Timing for main: time 2019-11-26_19:32:00 on domain   1:    1.06079 elapsed seconds
Timing for main: time 2019-11-26_19:32:15 on domain   1:    0.46945 elapsed seconds
Timing for main: time 2019-11-26_19:32:30 on domain   1:    0.23302 elapsed seconds
Timing for main: time 2019-11-26_19:32:45 on domain   1:    0.23455 elapsed seconds
Timing for main: time 2019-11-26_19:33:00 on domain   1:    0.23495 elapsed seconds
Timing for main: time 2019-11-26_19:33:15 on domain   1:    0.23404 elapsed seconds
Timing for main: time 2019-11-26_19:33:30 on domain   1:    0.23473 elapsed seconds
Timing for main: time 2019-11-26_19:33:45 on domain   1:    0.23338 elapsed seconds
Timing for main: time 2019-11-26_19:34:00 on domain   1:    0.23329 elapsed seconds
Timing for main: time 2019-11-26_19:34:15 on domain   1:    0.23539 elapsed seconds
Timing for main: time 2019-11-26_19:34:30 on domain   1:    0.25262 elapsed seconds
Timing for main: time 2019-11-26_19:34:45 on domain   1:    0.23339 elapsed seconds
Timing for main: time 2019-11-26_19:35:00 on domain   1:    0.26072 elapsed seconds
Timing for main: time 2019-11-26_19:35:15 on domain   1:    0.23677 elapsed seconds
Timing for main: time 2019-11-26_19:35:30 on domain   1:    0.23542 elapsed seconds
Timing for main: time 2019-11-26_19:35:45 on domain   1:    0.23359 elapsed seconds
Timing for main: time 2019-11-26_19:36:00 on domain   1:    0.23290 elapsed seconds
Timing for main: time 2019-11-26_19:36:15 on domain   1:    0.23390 elapsed seconds
Timing for main: time 2019-11-26_19:36:30 on domain   1:    0.23718 elapsed seconds
Timing for main: time 2019-11-26_19:36:45 on domain   1:    0.23496 elapsed seconds
Timing for main: time 2019-11-26_19:37:00 on domain   1:    0.23459 elapsed seconds
Timing for main: time 2019-11-26_19:37:15 on domain   1:    0.23282 elapsed seconds
Timing for main: time 2019-11-26_19:37:30 on domain   1:    0.23450 elapsed seconds
Timing for main: time 2019-11-26_19:37:45 on domain   1:    0.23564 elapsed seconds
Timing for main: time 2019-11-26_19:38:00 on domain   1:    0.23210 elapsed seconds
Timing for main: time 2019-11-26_19:38:15 on domain   1:    0.23283 elapsed seconds
Timing for main: time 2019-11-26_19:38:30 on domain   1:    0.23326 elapsed seconds
Timing for main: time 2019-11-26_19:38:45 on domain   1:    0.23359 elapsed seconds
Timing for main: time 2019-11-26_19:39:00 on domain   1:    0.23224 elapsed seconds
Timing for main: time 2019-11-26_19:39:15 on domain   1:    0.23260 elapsed seconds
Timing for main: time 2019-11-26_19:39:30 on domain   1:    0.24084 elapsed seconds
Timing for main: time 2019-11-26_19:39:45 on domain   1:    0.23270 elapsed seconds
Timing for main: time 2019-11-26_19:40:00 on domain   1:    0.23278 elapsed seconds
Timing for main: time 2019-11-26_19:40:15 on domain   1:    2.10636 elapsed seconds
Timing for main: time 2019-11-26_19:40:30 on domain   1:    0.23112 elapsed seconds
Timing for main: time 2019-11-26_19:40:45 on domain   1:    0.23258 elapsed seconds
Timing for main: time 2019-11-26_19:41:00 on domain   1:    1.08266 elapsed seconds
Timing for main: time 2019-11-26_19:41:15 on domain   1:    0.55926 elapsed seconds
Timing for main: time 2019-11-26_19:41:30 on domain   1:    0.23380 elapsed seconds
Timing for main: time 2019-11-26_19:41:45 on domain   1:    0.23227 elapsed seconds
Timing for main: time 2019-11-26_19:42:00 on domain   1:    0.23229 elapsed seconds
Timing for main: time 2019-11-26_19:42:15 on domain   1:    0.23312 elapsed seconds
Timing for main: time 2019-11-26_19:42:30 on domain   1:    0.23136 elapsed seconds
Timing for main: time 2019-11-26_19:42:45 on domain   1:    0.23287 elapsed seconds
Timing for main: time 2019-11-26_19:43:00 on domain   1:    0.23171 elapsed seconds
Timing for main: time 2019-11-26_19:43:15 on domain   1:    0.23434 elapsed seconds
Timing for main: time 2019-11-26_19:43:30 on domain   1:    0.23422 elapsed seconds
Timing for main: time 2019-11-26_19:43:45 on domain   1:    0.23415 elapsed seconds
Timing for main: time 2019-11-26_19:44:00 on domain   1:    0.23322 elapsed seconds
Timing for main: time 2019-11-26_19:44:15 on domain   1:    0.23364 elapsed seconds
Timing for main: time 2019-11-26_19:44:30 on domain   1:    0.23194 elapsed seconds
Timing for main: time 2019-11-26_19:44:45 on domain   1:    0.23177 elapsed seconds
Timing for main: time 2019-11-26_19:45:00 on domain   1:    0.23298 elapsed seconds
Timing for main: time 2019-11-26_19:45:15 on domain   1:    0.24259 elapsed seconds
Timing for main: time 2019-11-26_19:45:30 on domain   1:    0.23166 elapsed seconds
Timing for main: time 2019-11-26_19:45:45 on domain   1:    0.23281 elapsed seconds
Timing for main: time 2019-11-26_19:46:00 on domain   1:    0.23503 elapsed seconds
Timing for main: time 2019-11-26_19:46:15 on domain   1:    0.23215 elapsed seconds
Timing for main: time 2019-11-26_19:46:30 on domain   1:    0.23488 elapsed seconds
Timing for main: time 2019-11-26_19:46:45 on domain   1:    0.23266 elapsed seconds
Timing for main: time 2019-11-26_19:47:00 on domain   1:    0.23317 elapsed seconds
Timing for main: time 2019-11-26_19:47:15 on domain   1:    0.23419 elapsed seconds
Timing for main: time 2019-11-26_19:47:30 on domain   1:    0.23228 elapsed seconds
Timing for main: time 2019-11-26_19:47:45 on domain   1:    0.23350 elapsed seconds
Timing for main: time 2019-11-26_19:48:00 on domain   1:    0.23293 elapsed seconds
Timing for main: time 2019-11-26_19:48:15 on domain   1:    0.24059 elapsed seconds
Timing for main: time 2019-11-26_19:48:30 on domain   1:    0.23693 elapsed seconds
Timing for main: time 2019-11-26_19:48:45 on domain   1:    0.23383 elapsed seconds
Timing for main: time 2019-11-26_19:49:00 on domain   1:    0.23318 elapsed seconds
Timing for main: time 2019-11-26_19:49:15 on domain   1:    0.23429 elapsed seconds
Timing for main: time 2019-11-26_19:49:30 on domain   1:    0.23527 elapsed seconds
Timing for main: time 2019-11-26_19:49:45 on domain   1:    0.23254 elapsed seconds
Timing for main: time 2019-11-26_19:50:00 on domain   1:    0.23252 elapsed seconds
Timing for main: time 2019-11-26_19:50:15 on domain   1:    2.11063 elapsed seconds
Timing for main: time 2019-11-26_19:50:30 on domain   1:    0.29054 elapsed seconds
Timing for main: time 2019-11-26_19:50:45 on domain   1:    0.23188 elapsed seconds
Timing for main: time 2019-11-26_19:51:00 on domain   1:    0.23333 elapsed seconds
Timing for main: time 2019-11-26_19:51:15 on domain   1:    0.23288 elapsed seconds
Timing for main: time 2019-11-26_19:51:30 on domain   1:    0.23520 elapsed seconds
Timing for main: time 2019-11-26_19:51:45 on domain   1:    0.23374 elapsed seconds
Timing for main: time 2019-11-26_19:52:00 on domain   1:    0.23496 elapsed seconds
Timing for main: time 2019-11-26_19:52:15 on domain   1:    0.23686 elapsed seconds
Timing for main: time 2019-11-26_19:52:30 on domain   1:    0.23845 elapsed seconds
Timing for main: time 2019-11-26_19:52:45 on domain   1:    0.23494 elapsed seconds
Timing for main: time 2019-11-26_19:53:00 on domain   1:    0.23530 elapsed seconds
Timing for main: time 2019-11-26_19:53:15 on domain   1:    0.23489 elapsed seconds
Timing for main: time 2019-11-26_19:53:30 on domain   1:    0.23983 elapsed seconds
Timing for main: time 2019-11-26_19:53:45 on domain   1:    0.23204 elapsed seconds
Timing for main: time 2019-11-26_19:54:00 on domain   1:    0.23579 elapsed seconds
Timing for main: time 2019-11-26_19:54:15 on domain   1:    0.23596 elapsed seconds
Timing for main: time 2019-11-26_19:54:30 on domain   1:    0.23204 elapsed seconds
Timing for main: time 2019-11-26_19:54:45 on domain   1:    0.23653 elapsed seconds
Timing for main: time 2019-11-26_19:55:00 on domain   1:    0.23571 elapsed seconds
Timing for main: time 2019-11-26_19:55:15 on domain   1:    0.23617 elapsed seconds
Timing for main: time 2019-11-26_19:55:30 on domain   1:    0.23378 elapsed seconds
Timing for main: time 2019-11-26_19:55:45 on domain   1:    0.23392 elapsed seconds
Timing for main: time 2019-11-26_19:56:00 on domain   1:    0.23374 elapsed seconds
Timing for main: time 2019-11-26_19:56:15 on domain   1:    0.24099 elapsed seconds
Timing for main: time 2019-11-26_19:56:30 on domain   1:    0.23401 elapsed seconds
Timing for main: time 2019-11-26_19:56:45 on domain   1:    0.24058 elapsed seconds
Timing for main: time 2019-11-26_19:57:00 on domain   1:    0.24006 elapsed seconds
Timing for main: time 2019-11-26_19:57:15 on domain   1:    0.23752 elapsed seconds
Timing for main: time 2019-11-26_19:57:30 on domain   1:    0.23447 elapsed seconds
Timing for main: time 2019-11-26_19:57:45 on domain   1:    0.23705 elapsed seconds
Timing for main: time 2019-11-26_19:58:00 on domain   1:    0.23984 elapsed seconds
Timing for main: time 2019-11-26_19:58:15 on domain   1:    0.23315 elapsed seconds
Timing for main: time 2019-11-26_19:58:30 on domain   1:    0.23923 elapsed seconds
Timing for main: time 2019-11-26_19:58:45 on domain   1:    0.23310 elapsed seconds
Timing for main: time 2019-11-26_19:59:00 on domain   1:    0.23879 elapsed seconds
Timing for main: time 2019-11-26_19:59:15 on domain   1:    0.23526 elapsed seconds
Timing for main: time 2019-11-26_19:59:30 on domain   1:    0.23214 elapsed seconds
Timing for main: time 2019-11-26_19:59:45 on domain   1:    0.23503 elapsed seconds
Timing for main: time 2019-11-26_20:00:00 on domain   1:    0.23932 elapsed seconds
 mediation_integrate.G        1249 DATASET=HISTORY
 mediation_integrate.G        1250  grid%id            1  grid%oid            2
Timing for Writing wrfout_d01_2019-11-26_20:00:00 for domain        1:    4.19830 elapsed seconds
Timing for main: time 2019-11-26_20:00:15 on domain   1:    6.28590 elapsed seconds
Timing for main: time 2019-11-26_20:00:30 on domain   1:    0.23328 elapsed seconds
Timing for main: time 2019-11-26_20:00:45 on domain   1:    0.23504 elapsed seconds
Timing for main: time 2019-11-26_20:01:00 on domain   1:    0.24928 elapsed seconds
Timing for main: time 2019-11-26_20:01:15 on domain   1:    0.23915 elapsed seconds
Timing for main: time 2019-11-26_20:01:30 on domain   1:    0.23716 elapsed seconds
Timing for main: time 2019-11-26_20:01:45 on domain   1:    0.23771 elapsed seconds
Timing for main: time 2019-11-26_20:02:00 on domain   1:    0.26154 elapsed seconds
Timing for main: time 2019-11-26_20:02:15 on domain   1:    0.23496 elapsed seconds
Timing for main: time 2019-11-26_20:02:30 on domain   1:    0.23847 elapsed seconds
Timing for main: time 2019-11-26_20:02:45 on domain   1:    0.24030 elapsed seconds
Timing for main: time 2019-11-26_20:03:00 on domain   1:    0.23452 elapsed seconds
Timing for main: time 2019-11-26_20:03:15 on domain   1:    0.23433 elapsed seconds
Timing for main: time 2019-11-26_20:03:30 on domain   1:    0.44108 elapsed seconds
Timing for main: time 2019-11-26_20:03:45 on domain   1:    0.54115 elapsed seconds
Timing for main: time 2019-11-26_20:04:00 on domain   1:    0.23297 elapsed seconds
Timing for main: time 2019-11-26_20:04:15 on domain   1:    0.23574 elapsed seconds
Timing for main: time 2019-11-26_20:04:30 on domain   1:    0.23436 elapsed seconds
Timing for main: time 2019-11-26_20:04:45 on domain   1:    0.27218 elapsed seconds
Timing for main: time 2019-11-26_20:05:00 on domain   1:    0.23499 elapsed seconds
Timing for main: time 2019-11-26_20:05:15 on domain   1:    0.23817 elapsed seconds
Timing for main: time 2019-11-26_20:05:30 on domain   1:    0.23810 elapsed seconds
Timing for main: time 2019-11-26_20:05:45 on domain   1:    0.23905 elapsed seconds
Timing for main: time 2019-11-26_20:06:00 on domain   1:    0.23982 elapsed seconds
Timing for main: time 2019-11-26_20:06:15 on domain   1:    0.23849 elapsed seconds
Timing for main: time 2019-11-26_20:06:30 on domain   1:    0.23507 elapsed seconds
Timing for main: time 2019-11-26_20:06:45 on domain   1:    0.24481 elapsed seconds
Timing for main: time 2019-11-26_20:07:00 on domain   1:    0.23621 elapsed seconds
Timing for main: time 2019-11-26_20:07:15 on domain   1:    0.24001 elapsed seconds
Timing for main: time 2019-11-26_20:07:30 on domain   1:    0.23760 elapsed seconds
Timing for main: time 2019-11-26_20:07:45 on domain   1:    0.23435 elapsed seconds
Timing for main: time 2019-11-26_20:08:00 on domain   1:    0.25393 elapsed seconds
Timing for main: time 2019-11-26_20:08:15 on domain   1:    0.23815 elapsed seconds
Timing for main: time 2019-11-26_20:08:30 on domain   1:    0.65516 elapsed seconds
Timing for main: time 2019-11-26_20:08:45 on domain   1:    0.35955 elapsed seconds
Timing for main: time 2019-11-26_20:09:00 on domain   1:    0.23585 elapsed seconds
Timing for main: time 2019-11-26_20:09:15 on domain   1:    0.23380 elapsed seconds
Timing for main: time 2019-11-26_20:09:30 on domain   1:    0.23527 elapsed seconds
Timing for main: time 2019-11-26_20:09:45 on domain   1:    0.23907 elapsed seconds
Timing for main: time 2019-11-26_20:10:00 on domain   1:    0.24036 elapsed seconds
Timing for main: time 2019-11-26_20:10:15 on domain   1:    2.12674 elapsed seconds
Timing for main: time 2019-11-26_20:10:30 on domain   1:    0.23587 elapsed seconds
Timing for main: time 2019-11-26_20:10:45 on domain   1:    0.23493 elapsed seconds
Timing for main: time 2019-11-26_20:11:00 on domain   1:    0.23754 elapsed seconds
Timing for main: time 2019-11-26_20:11:15 on domain   1:    0.24189 elapsed seconds
Timing for main: time 2019-11-26_20:11:30 on domain   1:    0.23757 elapsed seconds
Timing for main: time 2019-11-26_20:11:45 on domain   1:    0.23952 elapsed seconds
Timing for main: time 2019-11-26_20:12:00 on domain   1:    0.24198 elapsed seconds
Timing for main: time 2019-11-26_20:12:15 on domain   1:    0.23953 elapsed seconds
Timing for main: time 2019-11-26_20:12:30 on domain   1:    0.24072 elapsed seconds
Timing for main: time 2019-11-26_20:12:45 on domain   1:    0.24167 elapsed seconds
Timing for main: time 2019-11-26_20:13:00 on domain   1:    0.23468 elapsed seconds
Timing for main: time 2019-11-26_20:13:15 on domain   1:    0.24177 elapsed seconds
Timing for main: time 2019-11-26_20:13:30 on domain   1:    0.23801 elapsed seconds
Timing for main: time 2019-11-26_20:13:45 on domain   1:    0.24156 elapsed seconds
Timing for main: time 2019-11-26_20:14:00 on domain   1:    0.23900 elapsed seconds
Timing for main: time 2019-11-26_20:14:15 on domain   1:    0.24140 elapsed seconds
Timing for main: time 2019-11-26_20:14:30 on domain   1:    0.23679 elapsed seconds
Timing for main: time 2019-11-26_20:14:45 on domain   1:    0.24149 elapsed seconds
Timing for main: time 2019-11-26_20:15:00 on domain   1:    0.23834 elapsed seconds
Timing for main: time 2019-11-26_20:15:15 on domain   1:    0.24081 elapsed seconds
Timing for main: time 2019-11-26_20:15:30 on domain   1:    0.23601 elapsed seconds
Timing for main: time 2019-11-26_20:15:45 on domain   1:    0.23978 elapsed seconds
Timing for main: time 2019-11-26_20:16:00 on domain   1:    0.24272 elapsed seconds
Timing for main: time 2019-11-26_20:16:15 on domain   1:    0.23931 elapsed seconds
Timing for main: time 2019-11-26_20:16:30 on domain   1:    0.23701 elapsed seconds
Timing for main: time 2019-11-26_20:16:45 on domain   1:    0.23600 elapsed seconds
Timing for main: time 2019-11-26_20:17:00 on domain   1:    0.24240 elapsed seconds
Timing for main: time 2019-11-26_20:17:15 on domain   1:    0.24191 elapsed seconds
Timing for main: time 2019-11-26_20:17:30 on domain   1:    0.23666 elapsed seconds
Timing for main: time 2019-11-26_20:17:45 on domain   1:    0.24328 elapsed seconds
Timing for main: time 2019-11-26_20:18:00 on domain   1:    0.24234 elapsed seconds
Timing for main: time 2019-11-26_20:18:15 on domain   1:    0.23877 elapsed seconds
Timing for main: time 2019-11-26_20:18:30 on domain   1:    0.24327 elapsed seconds
Timing for main: time 2019-11-26_20:18:45 on domain   1:    0.24465 elapsed seconds
Timing for main: time 2019-11-26_20:19:00 on domain   1:    0.24082 elapsed seconds
Timing for main: time 2019-11-26_20:19:15 on domain   1:    0.23863 elapsed seconds
Timing for main: time 2019-11-26_20:19:30 on domain   1:    0.24307 elapsed seconds
Timing for main: time 2019-11-26_20:19:45 on domain   1:    0.23738 elapsed seconds
Timing for main: time 2019-11-26_20:20:00 on domain   1:    0.24407 elapsed seconds
Timing for main: time 2019-11-26_20:20:15 on domain   1:    2.11565 elapsed seconds
Timing for main: time 2019-11-26_20:20:30 on domain   1:    0.23757 elapsed seconds
Timing for main: time 2019-11-26_20:20:45 on domain   1:    0.23823 elapsed seconds
Timing for main: time 2019-11-26_20:21:00 on domain   1:    0.23857 elapsed seconds
Timing for main: time 2019-11-26_20:21:15 on domain   1:    0.24343 elapsed seconds
Timing for main: time 2019-11-26_20:21:30 on domain   1:    0.24426 elapsed seconds
Timing for main: time 2019-11-26_20:21:45 on domain   1:    0.24126 elapsed seconds
Timing for main: time 2019-11-26_20:22:00 on domain   1:    0.24175 elapsed seconds
Timing for main: time 2019-11-26_20:22:15 on domain   1:    0.23902 elapsed seconds
Timing for main: time 2019-11-26_20:22:30 on domain   1:    0.24566 elapsed seconds
Timing for main: time 2019-11-26_20:22:45 on domain   1:    0.23951 elapsed seconds
Timing for main: time 2019-11-26_20:23:00 on domain   1:    0.24293 elapsed seconds
Timing for main: time 2019-11-26_20:23:15 on domain   1:    0.24224 elapsed seconds
Timing for main: time 2019-11-26_20:23:30 on domain   1:    0.23970 elapsed seconds
Timing for main: time 2019-11-26_20:23:45 on domain   1:    0.24443 elapsed seconds
Timing for main: time 2019-11-26_20:24:00 on domain   1:    0.24181 elapsed seconds
Timing for main: time 2019-11-26_20:24:15 on domain   1:    0.24345 elapsed seconds
Timing for main: time 2019-11-26_20:24:30 on domain   1:    0.24068 elapsed seconds
Timing for main: time 2019-11-26_20:24:45 on domain   1:    0.24039 elapsed seconds
Timing for main: time 2019-11-26_20:25:00 on domain   1:    0.24214 elapsed seconds
Timing for main: time 2019-11-26_20:25:15 on domain   1:    0.23920 elapsed seconds
Timing for main: time 2019-11-26_20:25:30 on domain   1:    0.24634 elapsed seconds
Timing for main: time 2019-11-26_20:25:45 on domain   1:    0.23895 elapsed seconds
Timing for main: time 2019-11-26_20:26:00 on domain   1:    0.24001 elapsed seconds
Timing for main: time 2019-11-26_20:26:15 on domain   1:    0.24324 elapsed seconds
Timing for main: time 2019-11-26_20:26:30 on domain   1:    0.24000 elapsed seconds
Timing for main: time 2019-11-26_20:26:45 on domain   1:    0.24378 elapsed seconds
Timing for main: time 2019-11-26_20:27:00 on domain   1:    0.24320 elapsed seconds
Timing for main: time 2019-11-26_20:27:15 on domain   1:    0.24396 elapsed seconds
Timing for main: time 2019-11-26_20:27:30 on domain   1:    0.24099 elapsed seconds
Timing for main: time 2019-11-26_20:27:45 on domain   1:    0.23750 elapsed seconds
Timing for main: time 2019-11-26_20:28:00 on domain   1:    0.24772 elapsed seconds
Timing for main: time 2019-11-26_20:28:15 on domain   1:    0.79368 elapsed seconds
Timing for main: time 2019-11-26_20:28:30 on domain   1:    0.23682 elapsed seconds
Timing for main: time 2019-11-26_20:28:45 on domain   1:    0.23777 elapsed seconds
Timing for main: time 2019-11-26_20:29:00 on domain   1:    0.23814 elapsed seconds
Timing for main: time 2019-11-26_20:29:15 on domain   1:    0.23865 elapsed seconds
Timing for main: time 2019-11-26_20:29:30 on domain   1:    0.24092 elapsed seconds
Timing for main: time 2019-11-26_20:29:45 on domain   1:    0.24356 elapsed seconds
Timing for main: time 2019-11-26_20:30:00 on domain   1:    0.24109 elapsed seconds
Timing for main: time 2019-11-26_20:30:15 on domain   1:    2.11026 elapsed seconds
Timing for main: time 2019-11-26_20:30:30 on domain   1:    0.23768 elapsed seconds
Timing for main: time 2019-11-26_20:30:45 on domain   1:    0.23923 elapsed seconds
Timing for main: time 2019-11-26_20:31:00 on domain   1:    0.23799 elapsed seconds
Timing for main: time 2019-11-26_20:31:15 on domain   1:    0.24215 elapsed seconds
Timing for main: time 2019-11-26_20:31:30 on domain   1:    0.23926 elapsed seconds
Timing for main: time 2019-11-26_20:31:45 on domain   1:    0.88303 elapsed seconds
Timing for main: time 2019-11-26_20:32:00 on domain   1:    0.76508 elapsed seconds
Timing for main: time 2019-11-26_20:32:15 on domain   1:    1.15991 elapsed seconds
Timing for main: time 2019-11-26_20:32:30 on domain   1:    0.28071 elapsed seconds
Timing for main: time 2019-11-26_20:32:45 on domain   1:    0.23381 elapsed seconds
Timing for main: time 2019-11-26_20:33:00 on domain   1:    0.23631 elapsed seconds
Timing for main: time 2019-11-26_20:33:15 on domain   1:    0.23684 elapsed seconds
Timing for main: time 2019-11-26_20:33:30 on domain   1:    0.23528 elapsed seconds
Timing for main: time 2019-11-26_20:33:45 on domain   1:    0.23772 elapsed seconds
Timing for main: time 2019-11-26_20:34:00 on domain   1:    0.23617 elapsed seconds
Timing for main: time 2019-11-26_20:34:15 on domain   1:    0.24251 elapsed seconds
Timing for main: time 2019-11-26_20:34:30 on domain   1:    0.23993 elapsed seconds
Timing for main: time 2019-11-26_20:34:45 on domain   1:    0.24252 elapsed seconds
Timing for main: time 2019-11-26_20:35:00 on domain   1:    0.23889 elapsed seconds
Timing for main: time 2019-11-26_20:35:15 on domain   1:    0.24319 elapsed seconds
Timing for main: time 2019-11-26_20:35:30 on domain   1:    0.23781 elapsed seconds
Timing for main: time 2019-11-26_20:35:45 on domain   1:    0.25613 elapsed seconds
Timing for main: time 2019-11-26_20:36:00 on domain   1:    0.23788 elapsed seconds
Timing for main: time 2019-11-26_20:36:15 on domain   1:    0.23726 elapsed seconds
Timing for main: time 2019-11-26_20:36:30 on domain   1:    0.24258 elapsed seconds
Timing for main: time 2019-11-26_20:36:45 on domain   1:    0.24173 elapsed seconds
Timing for main: time 2019-11-26_20:37:00 on domain   1:    0.23878 elapsed seconds
Timing for main: time 2019-11-26_20:37:15 on domain   1:    0.23961 elapsed seconds
Timing for main: time 2019-11-26_20:37:30 on domain   1:    0.23915 elapsed seconds
Timing for main: time 2019-11-26_20:37:45 on domain   1:    0.24118 elapsed seconds
Timing for main: time 2019-11-26_20:38:00 on domain   1:    0.24102 elapsed seconds
Timing for main: time 2019-11-26_20:38:15 on domain   1:    0.23943 elapsed seconds
Timing for main: time 2019-11-26_20:38:30 on domain   1:    0.24111 elapsed seconds
Timing for main: time 2019-11-26_20:38:45 on domain   1:    0.23715 elapsed seconds
Timing for main: time 2019-11-26_20:39:00 on domain   1:    0.24098 elapsed seconds
Timing for main: time 2019-11-26_20:39:15 on domain   1:    0.24217 elapsed seconds
Timing for main: time 2019-11-26_20:39:30 on domain   1:    0.23945 elapsed seconds
Timing for main: time 2019-11-26_20:39:45 on domain   1:    0.24163 elapsed seconds
Timing for main: time 2019-11-26_20:40:00 on domain   1:    0.24143 elapsed seconds
Timing for main: time 2019-11-26_20:40:15 on domain   1:    2.10613 elapsed seconds
Timing for main: time 2019-11-26_20:40:30 on domain   1:    0.23612 elapsed seconds
Timing for main: time 2019-11-26_20:40:45 on domain   1:    0.23545 elapsed seconds
Timing for main: time 2019-11-26_20:41:00 on domain   1:    0.24222 elapsed seconds
Timing for main: time 2019-11-26_20:41:15 on domain   1:    0.23936 elapsed seconds
Timing for main: time 2019-11-26_20:41:30 on domain   1:    0.23869 elapsed seconds
Timing for main: time 2019-11-26_20:41:45 on domain   1:    0.23921 elapsed seconds
Timing for main: time 2019-11-26_20:42:00 on domain   1:    0.24176 elapsed seconds
Timing for main: time 2019-11-26_20:42:15 on domain   1:    0.23759 elapsed seconds
Timing for main: time 2019-11-26_20:42:30 on domain   1:    0.24230 elapsed seconds
Timing for main: time 2019-11-26_20:42:45 on domain   1:    0.24030 elapsed seconds
Timing for main: time 2019-11-26_20:43:00 on domain   1:    0.23584 elapsed seconds
Timing for main: time 2019-11-26_20:43:15 on domain   1:    0.24134 elapsed seconds
Timing for main: time 2019-11-26_20:43:30 on domain   1:    0.23570 elapsed seconds
Timing for main: time 2019-11-26_20:43:45 on domain   1:    0.23833 elapsed seconds
Timing for main: time 2019-11-26_20:44:00 on domain   1:    0.24053 elapsed seconds
Timing for main: time 2019-11-26_20:44:15 on domain   1:    0.23810 elapsed seconds
Timing for main: time 2019-11-26_20:44:30 on domain   1:    0.24297 elapsed seconds
Timing for main: time 2019-11-26_20:44:45 on domain   1:    0.23641 elapsed seconds
Timing for main: time 2019-11-26_20:45:00 on domain   1:    0.24118 elapsed seconds
Timing for main: time 2019-11-26_20:45:15 on domain   1:    0.23784 elapsed seconds
Timing for main: time 2019-11-26_20:45:30 on domain   1:    0.23759 elapsed seconds
Timing for main: time 2019-11-26_20:45:45 on domain   1:    0.24060 elapsed seconds
Timing for main: time 2019-11-26_20:46:00 on domain   1:    0.23681 elapsed seconds
Timing for main: time 2019-11-26_20:46:15 on domain   1:    0.23789 elapsed seconds
Timing for main: time 2019-11-26_20:46:30 on domain   1:    0.23920 elapsed seconds
Timing for main: time 2019-11-26_20:46:45 on domain   1:    0.23866 elapsed seconds
Timing for main: time 2019-11-26_20:47:00 on domain   1:    0.24053 elapsed seconds
Timing for main: time 2019-11-26_20:47:15 on domain   1:    0.23631 elapsed seconds
Timing for main: time 2019-11-26_20:47:30 on domain   1:    0.23828 elapsed seconds
Timing for main: time 2019-11-26_20:47:45 on domain   1:    0.23955 elapsed seconds
Timing for main: time 2019-11-26_20:48:00 on domain   1:    0.23905 elapsed seconds
Timing for main: time 2019-11-26_20:48:15 on domain   1:    0.23660 elapsed seconds
Timing for main: time 2019-11-26_20:48:30 on domain   1:    0.23895 elapsed seconds
Timing for main: time 2019-11-26_20:48:45 on domain   1:    0.23835 elapsed seconds
Timing for main: time 2019-11-26_20:49:00 on domain   1:    0.24104 elapsed seconds
Timing for main: time 2019-11-26_20:49:15 on domain   1:    0.23690 elapsed seconds
Timing for main: time 2019-11-26_20:49:30 on domain   1:    0.24525 elapsed seconds
Timing for main: time 2019-11-26_20:49:45 on domain   1:    0.23816 elapsed seconds
Timing for main: time 2019-11-26_20:50:00 on domain   1:    0.23884 elapsed seconds
Timing for main: time 2019-11-26_20:50:15 on domain   1:    2.67409 elapsed seconds
Timing for main: time 2019-11-26_20:50:30 on domain   1:    0.77144 elapsed seconds
Timing for main: time 2019-11-26_20:50:45 on domain   1:    0.88670 elapsed seconds
Timing for main: time 2019-11-26_20:51:00 on domain   1:    0.48468 elapsed seconds
Timing for main: time 2019-11-26_20:51:15 on domain   1:    0.24841 elapsed seconds
Timing for main: time 2019-11-26_20:51:30 on domain   1:    0.27040 elapsed seconds
Timing for main: time 2019-11-26_20:51:45 on domain   1:    0.23558 elapsed seconds
Timing for main: time 2019-11-26_20:52:00 on domain   1:    0.23628 elapsed seconds
Timing for main: time 2019-11-26_20:52:15 on domain   1:    0.23848 elapsed seconds
Timing for main: time 2019-11-26_20:52:30 on domain   1:    0.23645 elapsed seconds
Timing for main: time 2019-11-26_20:52:45 on domain   1:    0.23788 elapsed seconds
Timing for main: time 2019-11-26_20:53:00 on domain   1:    0.23745 elapsed seconds
Timing for main: time 2019-11-26_20:53:15 on domain   1:    0.23904 elapsed seconds
Timing for main: time 2019-11-26_20:53:30 on domain   1:    0.23945 elapsed seconds
Timing for main: time 2019-11-26_20:53:45 on domain   1:    0.23798 elapsed seconds
Timing for main: time 2019-11-26_20:54:00 on domain   1:    0.23514 elapsed seconds
Timing for main: time 2019-11-26_20:54:15 on domain   1:    0.23725 elapsed seconds
Timing for main: time 2019-11-26_20:54:30 on domain   1:    0.23713 elapsed seconds
Timing for main: time 2019-11-26_20:54:45 on domain   1:    0.23553 elapsed seconds
Timing for main: time 2019-11-26_20:55:00 on domain   1:    0.23643 elapsed seconds
Timing for main: time 2019-11-26_20:55:15 on domain   1:    0.23992 elapsed seconds
Timing for main: time 2019-11-26_20:55:30 on domain   1:    0.23548 elapsed seconds
Timing for main: time 2019-11-26_20:55:45 on domain   1:    0.23793 elapsed seconds
Timing for main: time 2019-11-26_20:56:00 on domain   1:    0.24762 elapsed seconds
Timing for main: time 2019-11-26_20:56:15 on domain   1:    0.23630 elapsed seconds
Timing for main: time 2019-11-26_20:56:30 on domain   1:    0.23889 elapsed seconds
Timing for main: time 2019-11-26_20:56:45 on domain   1:    0.23658 elapsed seconds
Timing for main: time 2019-11-26_20:57:00 on domain   1:    0.23577 elapsed seconds
Timing for main: time 2019-11-26_20:57:15 on domain   1:    0.23920 elapsed seconds
Timing for main: time 2019-11-26_20:57:30 on domain   1:    0.23803 elapsed seconds
Timing for main: time 2019-11-26_20:57:45 on domain   1:    0.23680 elapsed seconds
Timing for main: time 2019-11-26_20:58:00 on domain   1:    0.24508 elapsed seconds
Timing for main: time 2019-11-26_20:58:15 on domain   1:    0.23955 elapsed seconds
Timing for main: time 2019-11-26_20:58:30 on domain   1:    0.23843 elapsed seconds
Timing for main: time 2019-11-26_20:58:45 on domain   1:    0.23674 elapsed seconds
Timing for main: time 2019-11-26_20:59:00 on domain   1:    0.23908 elapsed seconds
Timing for main: time 2019-11-26_20:59:15 on domain   1:    0.23748 elapsed seconds
Timing for main: time 2019-11-26_20:59:30 on domain   1:    0.23739 elapsed seconds
Timing for main: time 2019-11-26_20:59:45 on domain   1:    0.23798 elapsed seconds
Timing for main: time 2019-11-26_21:00:00 on domain   1:    0.23990 elapsed seconds
 mediation_integrate.G        1249 DATASET=HISTORY
 mediation_integrate.G        1250  grid%id            1  grid%oid            2
Timing for Writing wrfout_d01_2019-11-26_21:00:00 for domain        1:    4.12211 elapsed seconds
 Input data is acceptable to use: wrfbdy_d01
Timing for processing lateral boundary for domain        1:    1.05737 elapsed seconds
Timing for main: time 2019-11-26_21:00:15 on domain   1:    7.28106 elapsed seconds
Timing for main: time 2019-11-26_21:00:30 on domain   1:    0.23542 elapsed seconds
Timing for main: time 2019-11-26_21:00:45 on domain   1:    0.24122 elapsed seconds
Timing for main: time 2019-11-26_21:01:00 on domain   1:    0.23746 elapsed seconds
Timing for main: time 2019-11-26_21:01:15 on domain   1:    0.23816 elapsed seconds
Timing for main: time 2019-11-26_21:01:30 on domain   1:    0.24028 elapsed seconds
Timing for main: time 2019-11-26_21:01:45 on domain   1:    0.23714 elapsed seconds
Timing for main: time 2019-11-26_21:02:00 on domain   1:    0.23833 elapsed seconds
Timing for main: time 2019-11-26_21:02:15 on domain   1:    0.24379 elapsed seconds
Timing for main: time 2019-11-26_21:02:30 on domain   1:    0.23909 elapsed seconds
Timing for main: time 2019-11-26_21:02:45 on domain   1:    0.23902 elapsed seconds
Timing for main: time 2019-11-26_21:03:00 on domain   1:    0.24026 elapsed seconds
Timing for main: time 2019-11-26_21:03:15 on domain   1:    0.23710 elapsed seconds
Timing for main: time 2019-11-26_21:03:30 on domain   1:    0.23536 elapsed seconds
Timing for main: time 2019-11-26_21:03:45 on domain   1:    0.23930 elapsed seconds
Timing for main: time 2019-11-26_21:04:00 on domain   1:    0.27042 elapsed seconds
Timing for main: time 2019-11-26_21:04:15 on domain   1:    0.85441 elapsed seconds
Timing for main: time 2019-11-26_21:04:30 on domain   1:    0.80380 elapsed seconds
Timing for main: time 2019-11-26_21:04:45 on domain   1:    0.23904 elapsed seconds
Timing for main: time 2019-11-26_21:05:00 on domain   1:    0.23812 elapsed seconds
Timing for main: time 2019-11-26_21:05:15 on domain   1:    0.23827 elapsed seconds
Timing for main: time 2019-11-26_21:05:30 on domain   1:    0.24225 elapsed seconds
Timing for main: time 2019-11-26_21:05:45 on domain   1:    0.23686 elapsed seconds
Timing for main: time 2019-11-26_21:06:00 on domain   1:    0.23835 elapsed seconds
Timing for main: time 2019-11-26_21:06:15 on domain   1:    0.23663 elapsed seconds
Timing for main: time 2019-11-26_21:06:30 on domain   1:    0.23792 elapsed seconds
Timing for main: time 2019-11-26_21:06:45 on domain   1:    0.23596 elapsed seconds
Timing for main: time 2019-11-26_21:07:00 on domain   1:    0.23685 elapsed seconds
Timing for main: time 2019-11-26_21:07:15 on domain   1:    0.23763 elapsed seconds
Timing for main: time 2019-11-26_21:07:30 on domain   1:    0.23618 elapsed seconds
Timing for main: time 2019-11-26_21:07:45 on domain   1:    0.23967 elapsed seconds
Timing for main: time 2019-11-26_21:08:00 on domain   1:    0.23634 elapsed seconds
Timing for main: time 2019-11-26_21:08:15 on domain   1:    0.24035 elapsed seconds
Timing for main: time 2019-11-26_21:08:30 on domain   1:    0.23579 elapsed seconds
Timing for main: time 2019-11-26_21:08:45 on domain   1:    0.23847 elapsed seconds
Timing for main: time 2019-11-26_21:09:00 on domain   1:    0.23576 elapsed seconds
Timing for main: time 2019-11-26_21:09:15 on domain   1:    0.23962 elapsed seconds
Timing for main: time 2019-11-26_21:09:30 on domain   1:    0.23457 elapsed seconds
Timing for main: time 2019-11-26_21:09:45 on domain   1:    0.23798 elapsed seconds
Timing for main: time 2019-11-26_21:10:00 on domain   1:    0.26343 elapsed seconds
Timing for main: time 2019-11-26_21:10:15 on domain   1:    2.12109 elapsed seconds
Timing for main: time 2019-11-26_21:10:30 on domain   1:    0.23557 elapsed seconds
Timing for main: time 2019-11-26_21:10:45 on domain   1:    0.23510 elapsed seconds
Timing for main: time 2019-11-26_21:11:00 on domain   1:    0.23496 elapsed seconds
Timing for main: time 2019-11-26_21:11:15 on domain   1:    0.23872 elapsed seconds
Timing for main: time 2019-11-26_21:11:30 on domain   1:    0.23805 elapsed seconds
Timing for main: time 2019-11-26_21:11:45 on domain   1:    0.23814 elapsed seconds
Timing for main: time 2019-11-26_21:12:00 on domain   1:    0.23687 elapsed seconds
Timing for main: time 2019-11-26_21:12:15 on domain   1:    0.23791 elapsed seconds
Timing for main: time 2019-11-26_21:12:30 on domain   1:    0.23617 elapsed seconds
Timing for main: time 2019-11-26_21:12:45 on domain   1:    0.23701 elapsed seconds
Timing for main: time 2019-11-26_21:13:00 on domain   1:    0.23863 elapsed seconds
Timing for main: time 2019-11-26_21:13:15 on domain   1:    0.24019 elapsed seconds
Timing for main: time 2019-11-26_21:13:30 on domain   1:    0.23830 elapsed seconds
Timing for main: time 2019-11-26_21:13:45 on domain   1:    0.23575 elapsed seconds
Timing for main: time 2019-11-26_21:14:00 on domain   1:    0.23911 elapsed seconds
Timing for main: time 2019-11-26_21:14:15 on domain   1:    0.23770 elapsed seconds
Timing for main: time 2019-11-26_21:14:30 on domain   1:    0.23862 elapsed seconds
Timing for main: time 2019-11-26_21:14:45 on domain   1:    0.23479 elapsed seconds
Timing for main: time 2019-11-26_21:15:00 on domain   1:    0.23700 elapsed seconds
Timing for main: time 2019-11-26_21:15:15 on domain   1:    0.23992 elapsed seconds
Timing for main: time 2019-11-26_21:15:30 on domain   1:    0.23480 elapsed seconds
Timing for main: time 2019-11-26_21:15:45 on domain   1:    0.23911 elapsed seconds
Timing for main: time 2019-11-26_21:16:00 on domain   1:    0.45907 elapsed seconds
Timing for main: time 2019-11-26_21:16:15 on domain   1:    0.29961 elapsed seconds
Timing for main: time 2019-11-26_21:16:30 on domain   1:    0.76805 elapsed seconds
Timing for main: time 2019-11-26_21:16:45 on domain   1:    0.80065 elapsed seconds
Timing for main: time 2019-11-26_21:17:00 on domain   1:    0.29034 elapsed seconds
Timing for main: time 2019-11-26_21:17:15 on domain   1:    0.23570 elapsed seconds
Timing for main: time 2019-11-26_21:17:30 on domain   1:    0.23986 elapsed seconds
Timing for main: time 2019-11-26_21:17:45 on domain   1:    0.24010 elapsed seconds
Timing for main: time 2019-11-26_21:18:00 on domain   1:    0.23839 elapsed seconds
Timing for main: time 2019-11-26_21:18:15 on domain   1:    0.23865 elapsed seconds
Timing for main: time 2019-11-26_21:18:30 on domain   1:    0.23917 elapsed seconds
Timing for main: time 2019-11-26_21:18:45 on domain   1:    0.23789 elapsed seconds
Timing for main: time 2019-11-26_21:19:00 on domain   1:    0.23755 elapsed seconds
Timing for main: time 2019-11-26_21:19:15 on domain   1:    0.23492 elapsed seconds
Timing for main: time 2019-11-26_21:19:30 on domain   1:    0.23980 elapsed seconds
Timing for main: time 2019-11-26_21:19:45 on domain   1:    0.23780 elapsed seconds
Timing for main: time 2019-11-26_21:20:00 on domain   1:    0.23813 elapsed seconds
Timing for main: time 2019-11-26_21:20:15 on domain   1:    2.13876 elapsed seconds
Timing for main: time 2019-11-26_21:20:30 on domain   1:    0.23399 elapsed seconds
Timing for main: time 2019-11-26_21:20:45 on domain   1:    0.23420 elapsed seconds
Timing for main: time 2019-11-26_21:21:00 on domain   1:    0.23409 elapsed seconds
Timing for main: time 2019-11-26_21:21:15 on domain   1:    0.23983 elapsed seconds
Timing for main: time 2019-11-26_21:21:30 on domain   1:    0.23855 elapsed seconds
Timing for main: time 2019-11-26_21:21:45 on domain   1:    0.23611 elapsed seconds
Timing for main: time 2019-11-26_21:22:00 on domain   1:    0.23615 elapsed seconds
Timing for main: time 2019-11-26_21:22:15 on domain   1:    0.23516 elapsed seconds
Timing for main: time 2019-11-26_21:22:30 on domain   1:    0.23950 elapsed seconds
Timing for main: time 2019-11-26_21:22:45 on domain   1:    0.23726 elapsed seconds
Timing for main: time 2019-11-26_21:23:00 on domain   1:    0.23980 elapsed seconds
Timing for main: time 2019-11-26_21:23:15 on domain   1:    0.23672 elapsed seconds
Timing for main: time 2019-11-26_21:23:30 on domain   1:    0.23820 elapsed seconds
Timing for main: time 2019-11-26_21:23:45 on domain   1:    0.23710 elapsed seconds
Timing for main: time 2019-11-26_21:24:00 on domain   1:    0.23753 elapsed seconds
Timing for main: time 2019-11-26_21:24:15 on domain   1:    0.23974 elapsed seconds
Timing for main: time 2019-11-26_21:24:30 on domain   1:    0.23745 elapsed seconds
Timing for main: time 2019-11-26_21:24:45 on domain   1:    0.23871 elapsed seconds
Timing for main: time 2019-11-26_21:25:00 on domain   1:    0.23828 elapsed seconds
Timing for main: time 2019-11-26_21:25:15 on domain   1:    0.23488 elapsed seconds
Timing for main: time 2019-11-26_21:25:30 on domain   1:    0.24525 elapsed seconds
Timing for main: time 2019-11-26_21:25:45 on domain   1:    0.23844 elapsed seconds
Timing for main: time 2019-11-26_21:26:00 on domain   1:    0.23737 elapsed seconds
Timing for main: time 2019-11-26_21:26:15 on domain   1:    0.23815 elapsed seconds
Timing for main: time 2019-11-26_21:26:30 on domain   1:    0.23964 elapsed seconds
Timing for main: time 2019-11-26_21:26:45 on domain   1:    0.23785 elapsed seconds
Timing for main: time 2019-11-26_21:27:00 on domain   1:    0.23820 elapsed seconds
Timing for main: time 2019-11-26_21:27:15 on domain   1:    0.23558 elapsed seconds
Timing for main: time 2019-11-26_21:27:30 on domain   1:    0.23941 elapsed seconds
Timing for main: time 2019-11-26_21:27:45 on domain   1:    0.23501 elapsed seconds
Timing for main: time 2019-11-26_21:28:00 on domain   1:    0.24016 elapsed seconds
Timing for main: time 2019-11-26_21:28:15 on domain   1:    0.23806 elapsed seconds
Timing for main: time 2019-11-26_21:28:30 on domain   1:    0.23919 elapsed seconds
Timing for main: time 2019-11-26_21:28:45 on domain   1:    0.23731 elapsed seconds
Timing for main: time 2019-11-26_21:29:00 on domain   1:    0.23515 elapsed seconds
Timing for main: time 2019-11-26_21:29:15 on domain   1:    0.23917 elapsed seconds
Timing for main: time 2019-11-26_21:29:30 on domain   1:    0.23714 elapsed seconds
Timing for main: time 2019-11-26_21:29:45 on domain   1:    0.23436 elapsed seconds
Timing for main: time 2019-11-26_21:30:00 on domain   1:    0.23810 elapsed seconds
Timing for main: time 2019-11-26_21:30:15 on domain   1:    2.13077 elapsed seconds
Timing for main: time 2019-11-26_21:30:30 on domain   1:    0.23465 elapsed seconds
Timing for main: time 2019-11-26_21:30:45 on domain   1:    0.23502 elapsed seconds
Timing for main: time 2019-11-26_21:31:00 on domain   1:    0.23550 elapsed seconds
Timing for main: time 2019-11-26_21:31:15 on domain   1:    0.24497 elapsed seconds
Timing for main: time 2019-11-26_21:31:30 on domain   1:    0.25753 elapsed seconds
Timing for main: time 2019-11-26_21:31:45 on domain   1:    0.23507 elapsed seconds
Timing for main: time 2019-11-26_21:32:00 on domain   1:    0.24065 elapsed seconds
Timing for main: time 2019-11-26_21:32:15 on domain   1:    0.24114 elapsed seconds
Timing for main: time 2019-11-26_21:32:30 on domain   1:    0.23734 elapsed seconds
Timing for main: time 2019-11-26_21:32:45 on domain   1:    0.23557 elapsed seconds
Timing for main: time 2019-11-26_21:33:00 on domain   1:    0.24019 elapsed seconds
Timing for main: time 2019-11-26_21:33:15 on domain   1:    0.23914 elapsed seconds
Timing for main: time 2019-11-26_21:33:30 on domain   1:    0.23996 elapsed seconds
Timing for main: time 2019-11-26_21:33:45 on domain   1:    0.23924 elapsed seconds
Timing for main: time 2019-11-26_21:34:00 on domain   1:    0.24540 elapsed seconds
Timing for main: time 2019-11-26_21:34:15 on domain   1:    0.23607 elapsed seconds
Timing for main: time 2019-11-26_21:34:30 on domain   1:    0.24258 elapsed seconds
Timing for main: time 2019-11-26_21:34:45 on domain   1:    0.24167 elapsed seconds
Timing for main: time 2019-11-26_21:35:00 on domain   1:    0.23802 elapsed seconds
Timing for main: time 2019-11-26_21:35:15 on domain   1:    0.23933 elapsed seconds
Timing for main: time 2019-11-26_21:35:30 on domain   1:    0.23687 elapsed seconds
Timing for main: time 2019-11-26_21:35:45 on domain   1:    0.23775 elapsed seconds
Timing for main: time 2019-11-26_21:36:00 on domain   1:    0.24018 elapsed seconds
Timing for main: time 2019-11-26_21:36:15 on domain   1:    0.23621 elapsed seconds
Timing for main: time 2019-11-26_21:36:30 on domain   1:    0.24010 elapsed seconds
Timing for main: time 2019-11-26_21:36:45 on domain   1:    0.23946 elapsed seconds
Timing for main: time 2019-11-26_21:37:00 on domain   1:    0.24014 elapsed seconds
Timing for main: time 2019-11-26_21:37:15 on domain   1:    0.23869 elapsed seconds
Timing for main: time 2019-11-26_21:37:30 on domain   1:    0.23939 elapsed seconds
Timing for main: time 2019-11-26_21:37:45 on domain   1:    0.24106 elapsed seconds
Timing for main: time 2019-11-26_21:38:00 on domain   1:    0.76179 elapsed seconds
Timing for main: time 2019-11-26_21:38:15 on domain   1:    0.23675 elapsed seconds
Timing for main: time 2019-11-26_21:38:30 on domain   1:    0.24323 elapsed seconds
Timing for main: time 2019-11-26_21:38:45 on domain   1:    0.23822 elapsed seconds
Timing for main: time 2019-11-26_21:39:00 on domain   1:    0.23789 elapsed seconds
Timing for main: time 2019-11-26_21:39:15 on domain   1:    0.23966 elapsed seconds
Timing for main: time 2019-11-26_21:39:30 on domain   1:    0.23961 elapsed seconds
Timing for main: time 2019-11-26_21:39:45 on domain   1:    0.23942 elapsed seconds
Timing for main: time 2019-11-26_21:40:00 on domain   1:    0.23884 elapsed seconds
Timing for main: time 2019-11-26_21:40:15 on domain   1:    2.11017 elapsed seconds
Timing for main: time 2019-11-26_21:40:30 on domain   1:    0.23704 elapsed seconds
Timing for main: time 2019-11-26_21:40:45 on domain   1:    0.23663 elapsed seconds
Timing for main: time 2019-11-26_21:41:00 on domain   1:    0.23710 elapsed seconds
Timing for main: time 2019-11-26_21:41:15 on domain   1:    0.23770 elapsed seconds
Timing for main: time 2019-11-26_21:41:30 on domain   1:    0.23904 elapsed seconds
Timing for main: time 2019-11-26_21:41:45 on domain   1:    0.23842 elapsed seconds
Timing for main: time 2019-11-26_21:42:00 on domain   1:    0.23929 elapsed seconds
Timing for main: time 2019-11-26_21:42:15 on domain   1:    0.23936 elapsed seconds
Timing for main: time 2019-11-26_21:42:30 on domain   1:    0.24003 elapsed seconds
Timing for main: time 2019-11-26_21:42:45 on domain   1:    0.24529 elapsed seconds
Timing for main: time 2019-11-26_21:43:00 on domain   1:    0.54929 elapsed seconds
Timing for main: time 2019-11-26_21:43:15 on domain   1:    0.45650 elapsed seconds
Timing for main: time 2019-11-26_21:43:30 on domain   1:    0.23659 elapsed seconds
[...]
Timing for main: time 2019-11-26_23:01:30 on domain   1:    0.24073 elapsed seconds
Timing for main: time 2019-11-26_23:01:45 on domain   1:    0.24080 elapsed seconds
Timing for main: time 2019-11-26_23:02:00 on domain   1:    0.24068 elapsed seconds
Timing for main: time 2019-11-26_23:02:15 on domain   1:    0.24391 elapsed seconds
Timing for main: time 2019-11-26_23:02:30 on domain   1:    0.24552 elapsed seconds
Timing for main: time 2019-11-26_23:02:45 on domain   1:    0.24427 elapsed seconds
Timing for main: time 2019-11-26_23:03:00 on domain   1:    0.24509 elapsed seconds
Timing for main: time 2019-11-26_23:03:15 on domain   1:    0.24205 elapsed seconds
Timing for main: time 2019-11-26_23:03:30 on domain   1:    0.24447 elapsed seconds
Timing for main: time 2019-11-26_23:03:45 on domain   1:    0.24527 elapsed seconds
Timing for main: time 2019-11-26_23:04:00 on domain   1:    0.24372 elapsed seconds
Timing for main: time 2019-11-26_23:04:15 on domain   1:    0.24123 elapsed seconds
Timing for main: time 2019-11-26_23:04:30 on domain   1:    0.24379 elapsed seconds
Timing for main: time 2019-11-26_23:04:45 on domain   1:    0.24493 elapsed seconds
Timing for main: time 2019-11-26_23:05:00 on domain   1:    0.24423 elapsed seconds
Timing for main: time 2019-11-26_23:05:15 on domain   1:    0.24467 elapsed seconds
Timing for main: time 2019-11-26_23:05:30 on domain   1:    0.24105 elapsed seconds
Timing for main: time 2019-11-26_23:05:45 on domain   1:    0.24619 elapsed seconds
Timing for main: time 2019-11-26_23:06:00 on domain   1:    0.24974 elapsed seconds
Timing for main: time 2019-11-26_23:06:15 on domain   1:    0.24218 elapsed seconds
Timing for main: time 2019-11-26_23:06:30 on domain   1:    0.24450 elapsed seconds
Timing for main: time 2019-11-26_23:06:45 on domain   1:    0.24510 elapsed seconds
Timing for main: time 2019-11-26_23:07:00 on domain   1:    0.24339 elapsed seconds
Timing for main: time 2019-11-26_23:07:15 on domain   1:    0.24516 elapsed seconds
Timing for main: time 2019-11-26_23:07:30 on domain   1:    0.24127 elapsed seconds
Timing for main: time 2019-11-26_23:07:45 on domain   1:    0.24621 elapsed seconds
Timing for main: time 2019-11-26_23:08:00 on domain   1:    0.24393 elapsed seconds
Timing for main: time 2019-11-26_23:08:15 on domain   1:    0.24298 elapsed seconds
Timing for main: time 2019-11-26_23:08:30 on domain   1:    0.24897 elapsed seconds
Timing for main: time 2019-11-26_23:08:45 on domain   1:    0.24471 elapsed seconds
Timing for main: time 2019-11-26_23:09:00 on domain   1:    0.24645 elapsed seconds
Timing for main: time 2019-11-26_23:09:15 on domain   1:    0.24378 elapsed seconds
Timing for main: time 2019-11-26_23:09:30 on domain   1:    0.24389 elapsed seconds
Timing for main: time 2019-11-26_23:09:45 on domain   1:    0.24475 elapsed seconds
Timing for main: time 2019-11-26_23:10:00 on domain   1:    0.24414 elapsed seconds
Timing for main: time 2019-11-26_23:10:15 on domain   1:    2.04512 elapsed seconds
Timing for main: time 2019-11-26_23:10:30 on domain   1:    0.24083 elapsed seconds
Timing for main: time 2019-11-26_23:10:45 on domain   1:    0.24387 elapsed seconds
Timing for main: time 2019-11-26_23:11:00 on domain   1:    0.24414 elapsed seconds
Timing for main: time 2019-11-26_23:11:15 on domain   1:    0.23985 elapsed seconds
Timing for main: time 2019-11-26_23:11:30 on domain   1:    0.24239 elapsed seconds
Timing for main: time 2019-11-26_23:11:45 on domain   1:    0.24683 elapsed seconds
Timing for main: time 2019-11-26_23:12:00 on domain   1:    0.23766 elapsed seconds
Timing for main: time 2019-11-26_23:12:15 on domain   1:    0.24696 elapsed seconds
Timing for main: time 2019-11-26_23:12:30 on domain   1:    0.24949 elapsed seconds
Timing for main: time 2019-11-26_23:12:45 on domain   1:    0.24327 elapsed seconds
Timing for main: time 2019-11-26_23:13:00 on domain   1:    0.24462 elapsed seconds
Timing for main: time 2019-11-26_23:13:15 on domain   1:    0.24492 elapsed seconds
Timing for main: time 2019-11-26_23:13:30 on domain   1:    0.24562 elapsed seconds
Timing for main: time 2019-11-26_23:13:45 on domain   1:    0.24271 elapsed seconds
Timing for main: time 2019-11-26_23:14:00 on domain   1:    0.24620 elapsed seconds
Timing for main: time 2019-11-26_23:14:15 on domain   1:    0.24249 elapsed seconds
Timing for main: time 2019-11-26_23:14:30 on domain   1:    0.24097 elapsed seconds
Timing for main: time 2019-11-26_23:14:45 on domain   1:    0.24532 elapsed seconds
Timing for main: time 2019-11-26_23:15:00 on domain   1:    0.24532 elapsed seconds
Timing for main: time 2019-11-26_23:15:15 on domain   1:    0.23951 elapsed seconds
Timing for main: time 2019-11-26_23:15:30 on domain   1:    0.24554 elapsed seconds
Timing for main: time 2019-11-26_23:15:45 on domain   1:    0.24441 elapsed seconds
Timing for main: time 2019-11-26_23:16:00 on domain   1:    0.24576 elapsed seconds
Timing for main: time 2019-11-26_23:16:15 on domain   1:    0.24445 elapsed seconds
Timing for main: time 2019-11-26_23:16:30 on domain   1:    0.24543 elapsed seconds
Timing for main: time 2019-11-26_23:16:45 on domain   1:    0.24516 elapsed seconds
Timing for main: time 2019-11-26_23:17:00 on domain   1:    0.24367 elapsed seconds
Timing for main: time 2019-11-26_23:17:15 on domain   1:    0.24457 elapsed seconds
Timing for main: time 2019-11-26_23:17:30 on domain   1:    0.24442 elapsed seconds
Timing for main: time 2019-11-26_23:17:45 on domain   1:    0.24280 elapsed seconds
Timing for main: time 2019-11-26_23:18:00 on domain   1:    0.24351 elapsed seconds
Timing for main: time 2019-11-26_23:18:15 on domain   1:    0.24509 elapsed seconds
Timing for main: time 2019-11-26_23:18:30 on domain   1:    0.24404 elapsed seconds
Timing for main: time 2019-11-26_23:18:45 on domain   1:    0.24567 elapsed seconds
Timing for main: time 2019-11-26_23:19:00 on domain   1:    0.24306 elapsed seconds
Timing for main: time 2019-11-26_23:19:15 on domain   1:    0.24251 elapsed seconds
Timing for main: time 2019-11-26_23:19:30 on domain   1:    0.24532 elapsed seconds
Timing for main: time 2019-11-26_23:19:45 on domain   1:    0.24222 elapsed seconds
Timing for main: time 2019-11-26_23:20:00 on domain   1:    0.24324 elapsed seconds
Timing for main: time 2019-11-26_23:20:15 on domain   1:    2.03741 elapsed seconds
Timing for main: time 2019-11-26_23:20:30 on domain   1:    0.24132 elapsed seconds
Timing for main: time 2019-11-26_23:20:45 on domain   1:    0.24101 elapsed seconds
Timing for main: time 2019-11-26_23:21:00 on domain   1:    0.24076 elapsed seconds
Timing for main: time 2019-11-26_23:21:15 on domain   1:    0.24217 elapsed seconds
Timing for main: time 2019-11-26_23:21:30 on domain   1:    0.24043 elapsed seconds
Timing for main: time 2019-11-26_23:21:45 on domain   1:    0.24229 elapsed seconds
Timing for main: time 2019-11-26_23:22:00 on domain   1:    0.24543 elapsed seconds
Timing for main: time 2019-11-26_23:22:15 on domain   1:    0.77200 elapsed seconds
Timing for main: time 2019-11-26_23:22:30 on domain   1:    0.30454 elapsed seconds
Timing for main: time 2019-11-26_23:22:45 on domain   1:    0.24154 elapsed seconds
Timing for main: time 2019-11-26_23:23:00 on domain   1:    0.24141 elapsed seconds
Timing for main: time 2019-11-26_23:23:15 on domain   1:    0.24186 elapsed seconds
Timing for main: time 2019-11-26_23:23:30 on domain   1:    0.24145 elapsed seconds
Timing for main: time 2019-11-26_23:23:45 on domain   1:    0.24667 elapsed seconds
Timing for main: time 2019-11-26_23:24:00 on domain   1:    0.24497 elapsed seconds
Timing for main: time 2019-11-26_23:24:15 on domain   1:    0.24664 elapsed seconds
Timing for main: time 2019-11-26_23:24:30 on domain   1:    0.24480 elapsed seconds
Timing for main: time 2019-11-26_23:24:45 on domain   1:    0.24472 elapsed seconds
Timing for main: time 2019-11-26_23:25:00 on domain   1:    0.24760 elapsed seconds
Timing for main: time 2019-11-26_23:25:15 on domain   1:    0.24433 elapsed seconds
Timing for main: time 2019-11-26_23:25:30 on domain   1:    0.24567 elapsed seconds
Timing for main: time 2019-11-26_23:25:45 on domain   1:    0.92220 elapsed seconds
Timing for main: time 2019-11-26_23:26:00 on domain   1:    0.29408 elapsed seconds
Timing for main: time 2019-11-26_23:26:15 on domain   1:    0.24416 elapsed seconds
Timing for main: time 2019-11-26_23:26:30 on domain   1:    0.24959 elapsed seconds
Timing for main: time 2019-11-26_23:26:45 on domain   1:    0.24612 elapsed seconds
Timing for main: time 2019-11-26_23:27:00 on domain   1:    0.24555 elapsed seconds
Timing for main: time 2019-11-26_23:27:15 on domain   1:    0.24607 elapsed seconds
Timing for main: time 2019-11-26_23:27:30 on domain   1:    0.24540 elapsed seconds
Timing for main: time 2019-11-26_23:27:45 on domain   1:    0.24435 elapsed seconds
Timing for main: time 2019-11-26_23:28:00 on domain   1:    0.60942 elapsed seconds
Timing for main: time 2019-11-26_23:28:15 on domain   1:    0.82629 elapsed seconds
Timing for main: time 2019-11-26_23:28:30 on domain   1:    0.59265 elapsed seconds
Timing for main: time 2019-11-26_23:28:45 on domain   1:    0.24477 elapsed seconds
Timing for main: time 2019-11-26_23:29:00 on domain   1:    0.24410 elapsed seconds
Timing for main: time 2019-11-26_23:29:15 on domain   1:    0.24381 elapsed seconds
Timing for main: time 2019-11-26_23:29:30 on domain   1:    0.24371 elapsed seconds
Timing for main: time 2019-11-26_23:29:45 on domain   1:    0.25244 elapsed seconds
Timing for main: time 2019-11-26_23:30:00 on domain   1:    0.24233 elapsed seconds
Timing for main: time 2019-11-26_23:30:15 on domain   1:    2.07799 elapsed seconds
Timing for main: time 2019-11-26_23:30:30 on domain   1:    0.25236 elapsed seconds
Timing for main: time 2019-11-26_23:30:45 on domain   1:    0.24417 elapsed seconds
Timing for main: time 2019-11-26_23:31:00 on domain   1:    0.24398 elapsed seconds
Timing for main: time 2019-11-26_23:31:15 on domain   1:    0.24419 elapsed seconds
Timing for main: time 2019-11-26_23:31:30 on domain   1:    0.24340 elapsed seconds
Timing for main: time 2019-11-26_23:31:45 on domain   1:    0.24562 elapsed seconds
Timing for main: time 2019-11-26_23:32:00 on domain   1:    0.25114 elapsed seconds
Timing for main: time 2019-11-26_23:32:15 on domain   1:    0.24669 elapsed seconds
Timing for main: time 2019-11-26_23:32:30 on domain   1:    0.24947 elapsed seconds
Timing for main: time 2019-11-26_23:32:45 on domain   1:    0.24668 elapsed seconds
Timing for main: time 2019-11-26_23:33:00 on domain   1:    0.24806 elapsed seconds
Timing for main: time 2019-11-26_23:33:15 on domain   1:    0.24861 elapsed seconds
Timing for main: time 2019-11-26_23:33:30 on domain   1:    0.24578 elapsed seconds
Timing for main: time 2019-11-26_23:33:45 on domain   1:    0.24766 elapsed seconds
Timing for main: time 2019-11-26_23:34:00 on domain   1:    0.24753 elapsed seconds
Timing for main: time 2019-11-26_23:34:15 on domain   1:    0.24701 elapsed seconds
Timing for main: time 2019-11-26_23:34:30 on domain   1:    0.24713 elapsed seconds
Timing for main: time 2019-11-26_23:34:45 on domain   1:    0.24606 elapsed seconds
Timing for main: time 2019-11-26_23:35:00 on domain   1:    0.25266 elapsed seconds
Timing for main: time 2019-11-26_23:35:15 on domain   1:    0.24505 elapsed seconds
Timing for main: time 2019-11-26_23:35:30 on domain   1:    0.24622 elapsed seconds
Timing for main: time 2019-11-26_23:35:45 on domain   1:    0.24779 elapsed seconds
Timing for main: time 2019-11-26_23:36:00 on domain   1:    0.24861 elapsed seconds
Timing for main: time 2019-11-26_23:36:15 on domain   1:    0.24762 elapsed seconds
Timing for main: time 2019-11-26_23:36:30 on domain   1:    0.25079 elapsed seconds
Timing for main: time 2019-11-26_23:36:45 on domain   1:    0.24235 elapsed seconds
Timing for main: time 2019-11-26_23:37:00 on domain   1:    0.24885 elapsed seconds
Timing for main: time 2019-11-26_23:37:15 on domain   1:    0.24703 elapsed seconds
Timing for main: time 2019-11-26_23:37:30 on domain   1:    0.24790 elapsed seconds
Timing for main: time 2019-11-26_23:37:45 on domain   1:    0.24889 elapsed seconds
Timing for main: time 2019-11-26_23:38:00 on domain   1:    0.24817 elapsed seconds
Timing for main: time 2019-11-26_23:38:15 on domain   1:    0.24987 elapsed seconds
Timing for main: time 2019-11-26_23:38:30 on domain   1:    0.24731 elapsed seconds
Timing for main: time 2019-11-26_23:38:45 on domain   1:    0.25023 elapsed seconds
Timing for main: time 2019-11-26_23:39:00 on domain   1:    0.24788 elapsed seconds
Timing for main: time 2019-11-26_23:39:15 on domain   1:    0.24739 elapsed seconds
Timing for main: time 2019-11-26_23:39:30 on domain   1:    0.24528 elapsed seconds
Timing for main: time 2019-11-26_23:39:45 on domain   1:    0.24819 elapsed seconds
Timing for main: time 2019-11-26_23:40:00 on domain   1:    0.24738 elapsed seconds
Timing for main: time 2019-11-26_23:40:15 on domain   1:    2.04564 elapsed seconds
Timing for main: time 2019-11-26_23:40:30 on domain   1:    0.24511 elapsed seconds
Timing for main: time 2019-11-26_23:40:45 on domain   1:    0.25302 elapsed seconds
Timing for main: time 2019-11-26_23:41:00 on domain   1:    0.23845 elapsed seconds
Timing for main: time 2019-11-26_23:41:15 on domain   1:    0.24597 elapsed seconds
Timing for main: time 2019-11-26_23:41:30 on domain   1:    0.24735 elapsed seconds
Timing for main: time 2019-11-26_23:41:45 on domain   1:    0.24525 elapsed seconds
Timing for main: time 2019-11-26_23:42:00 on domain   1:    0.24676 elapsed seconds
Timing for main: time 2019-11-26_23:42:15 on domain   1:    0.24678 elapsed seconds
Timing for main: time 2019-11-26_23:42:30 on domain   1:    0.24832 elapsed seconds
Timing for main: time 2019-11-26_23:42:45 on domain   1:    0.24749 elapsed seconds
Timing for main: time 2019-11-26_23:43:00 on domain   1:    0.24821 elapsed seconds
Timing for main: time 2019-11-26_23:43:15 on domain   1:    0.24878 elapsed seconds
Timing for main: time 2019-11-26_23:43:30 on domain   1:    0.24704 elapsed seconds
Timing for main: time 2019-11-26_23:43:45 on domain   1:    0.24962 elapsed seconds
Timing for main: time 2019-11-26_23:44:00 on domain   1:    0.25438 elapsed seconds
Timing for main: time 2019-11-26_23:44:15 on domain   1:    0.24829 elapsed seconds
Timing for main: time 2019-11-26_23:44:30 on domain   1:    0.24926 elapsed seconds
Timing for main: time 2019-11-26_23:44:45 on domain   1:    0.24809 elapsed seconds
Timing for main: time 2019-11-26_23:45:00 on domain   1:    0.25638 elapsed seconds
Timing for main: time 2019-11-26_23:45:15 on domain   1:    0.25078 elapsed seconds
Timing for main: time 2019-11-26_23:45:30 on domain   1:    0.25025 elapsed seconds
Timing for main: time 2019-11-26_23:45:45 on domain   1:    0.24709 elapsed seconds
Timing for main: time 2019-11-26_23:46:00 on domain   1:    0.24898 elapsed seconds
Timing for main: time 2019-11-26_23:46:15 on domain   1:    0.25186 elapsed seconds
Timing for main: time 2019-11-26_23:46:30 on domain   1:    0.24874 elapsed seconds
Timing for main: time 2019-11-26_23:46:45 on domain   1:    0.24690 elapsed seconds
Timing for main: time 2019-11-26_23:47:00 on domain   1:    0.24583 elapsed seconds
Timing for main: time 2019-11-26_23:47:15 on domain   1:    0.35037 elapsed seconds
Timing for main: time 2019-11-26_23:47:30 on domain   1:    0.77996 elapsed seconds
Timing for main: time 2019-11-26_23:47:45 on domain   1:    1.28356 elapsed seconds
Timing for main: time 2019-11-26_23:48:00 on domain   1:    0.90218 elapsed seconds
Timing for main: time 2019-11-26_23:48:15 on domain   1:    0.73840 elapsed seconds
Timing for main: time 2019-11-26_23:48:30 on domain   1:    0.24370 elapsed seconds
Timing for main: time 2019-11-26_23:48:45 on domain   1:    0.24535 elapsed seconds
Timing for main: time 2019-11-26_23:49:00 on domain   1:    0.24661 elapsed seconds
Timing for main: time 2019-11-26_23:49:15 on domain   1:    0.24559 elapsed seconds
Timing for main: time 2019-11-26_23:49:30 on domain   1:    0.24743 elapsed seconds
Timing for main: time 2019-11-26_23:49:45 on domain   1:    0.24600 elapsed seconds
Timing for main: time 2019-11-26_23:50:00 on domain   1:    0.24578 elapsed seconds
Timing for main: time 2019-11-26_23:50:15 on domain   1:    2.03134 elapsed seconds
Timing for main: time 2019-11-26_23:50:30 on domain   1:    0.25559 elapsed seconds
Timing for main: time 2019-11-26_23:50:45 on domain   1:    0.24699 elapsed seconds
Timing for main: time 2019-11-26_23:51:00 on domain   1:    0.24670 elapsed seconds
Timing for main: time 2019-11-26_23:51:15 on domain   1:    0.24731 elapsed seconds
Timing for main: time 2019-11-26_23:51:30 on domain   1:    0.24679 elapsed seconds
Timing for main: time 2019-11-26_23:51:45 on domain   1:    0.25157 elapsed seconds
Timing for main: time 2019-11-26_23:52:00 on domain   1:    0.24623 elapsed seconds
Timing for main: time 2019-11-26_23:52:15 on domain   1:    0.26864 elapsed seconds
Timing for main: time 2019-11-26_23:52:30 on domain   1:    0.24891 elapsed seconds
Timing for main: time 2019-11-26_23:52:45 on domain   1:    0.25200 elapsed seconds
Timing for main: time 2019-11-26_23:53:00 on domain   1:    0.24595 elapsed seconds
Timing for main: time 2019-11-26_23:53:15 on domain   1:    0.24863 elapsed seconds
Timing for main: time 2019-11-26_23:53:30 on domain   1:    0.25171 elapsed seconds
Timing for main: time 2019-11-26_23:53:45 on domain   1:    0.24673 elapsed seconds
Timing for main: time 2019-11-26_23:54:00 on domain   1:    0.24830 elapsed seconds
Timing for main: time 2019-11-26_23:54:15 on domain   1:    0.25172 elapsed seconds
Timing for main: time 2019-11-26_23:54:30 on domain   1:    0.24646 elapsed seconds
Timing for main: time 2019-11-26_23:54:45 on domain   1:    0.24793 elapsed seconds
Timing for main: time 2019-11-26_23:55:00 on domain   1:    0.24940 elapsed seconds
Timing for main: time 2019-11-26_23:55:15 on domain   1:    0.24824 elapsed seconds
Timing for main: time 2019-11-26_23:55:30 on domain   1:    0.24695 elapsed seconds
Timing for main: time 2019-11-26_23:55:45 on domain   1:    0.24999 elapsed seconds
Timing for main: time 2019-11-26_23:56:00 on domain   1:    0.24902 elapsed seconds
Timing for main: time 2019-11-26_23:56:15 on domain   1:    0.24720 elapsed seconds
Timing for main: time 2019-11-26_23:56:30 on domain   1:    0.24780 elapsed seconds
Timing for main: time 2019-11-26_23:56:45 on domain   1:    0.24740 elapsed seconds
Timing for main: time 2019-11-26_23:57:00 on domain   1:    0.24824 elapsed seconds
Timing for main: time 2019-11-26_23:57:15 on domain   1:    0.24790 elapsed seconds
Timing for main: time 2019-11-26_23:57:30 on domain   1:    0.24685 elapsed seconds
Timing for main: time 2019-11-26_23:57:45 on domain   1:    0.24770 elapsed seconds
Timing for main: time 2019-11-26_23:58:00 on domain   1:    0.24760 elapsed seconds
Timing for main: time 2019-11-26_23:58:15 on domain   1:    0.24955 elapsed seconds
Timing for main: time 2019-11-26_23:58:30 on domain   1:    0.24689 elapsed seconds
Timing for main: time 2019-11-26_23:58:45 on domain   1:    0.24851 elapsed seconds
Timing for main: time 2019-11-26_23:59:00 on domain   1:    0.24734 elapsed seconds
Timing for main: time 2019-11-26_23:59:15 on domain   1:    0.24882 elapsed seconds
Timing for main: time 2019-11-26_23:59:30 on domain   1:    0.32004 elapsed seconds
Timing for main: time 2019-11-26_23:59:45 on domain   1:    0.24845 elapsed seconds
Timing for main: time 2019-11-27_00:00:00 on domain   1:    0.24784 elapsed seconds
 mediation_integrate.G        1249 DATASET=HISTORY
 mediation_integrate.G        1250  grid%id            1  grid%oid            2
Timing for Writing wrfout_d01_2019-11-27_00:00:00 for domain        1:    4.41658 elapsed seconds
wrf: SUCCESS COMPLETE WRF
