taskid: 0 hostname: x1006c0s2b1n1
 module_io_quilt_old.F        2931 F
Quilting with   1 groups of   0 I/O tasks.
 Ntasks in X           32 , ntasks in Y           48
*************************************
Configuring physics suite 'conus'

         mp_physics:      8
         cu_physics:      0*
      ra_lw_physics:      4
      ra_sw_physics:      4
     bl_pbl_physics:      2
  sf_sfclay_physics:      2
 sf_surface_physics:      2

(* = option overrides suite setting)
*************************************
Domain # 1: dx =  2500.000 m
WRF V4.7.1 MODEL
No git found or not a git repository, git commit version not available.
 *************************************
 Parent domain
 ids,ide,jds,jde            1        1501           1        1201
 ims,ime,jms,jme           -4          54          -4          32
 ips,ipe,jps,jpe            1          47           1          25
 *************************************
DYNAMICS OPTION: Eulerian Mass Coordinate
 alloc_space_field: domain            1 ,              80621012  bytes allocated
med_initialdata_input: calling input_input
 Input data is acceptable to use: wrfinput_d01
 CURRENT DATE          = 2019-11-26_18:00:00
 SIMULATION START DATE = 2019-11-26_18:00:00
Timing for processing wrfinput file (stream 0) for domain        1:   36.78922 elapsed seconds
Max map factor in domain 1 =  1.02. Scale the dt in the model accordingly.
 D01: Time step                              =    15.0000000      (s)
 D01: Grid Distance                          =    2.50000000      (km)
 D01: Grid Distance Ratio dt/dx              =    6.00000000      (s/km)
 D01: Ratio Including Maximum Map Factor     =    6.13815594      (s/km)
 D01: NML defined reasonable_time_step_ratio =    6.00000000
 Climate GHG input from file from year         1765  to         2499
 CO2   range =    277.91300000000001        579.26400000000001       ppm
 N2O   range =    274.37200000000001        359.79800000000000       ppb
 CH4   range =    738.98599999999999        997.31100000000004       ppb
 CFC11 range =    0.0000000000000000        1.4000000000000000E-002  ppt
 CFC12 range =    0.0000000000000000        2.8809999999999998       ppt
 Normal ending of CAMtr_volume_mixing_ratio file
 GHG annual values from CAM trace gas file
 Year =         2019 , Julian day =          330
 CO2   =    4.1280616288937283E-004  volume mixing ratio
 N2O   =    3.3164731848847696E-007  volume mixing ratio
 CH4   =    1.9046224215321381E-006  volume mixing ratio
 CFC11 =    2.1972312207550427E-010  volume mixing ratio
 CFC12 =    4.9756474391800364E-010  volume mixing ratio
INPUT LandUse = "MODIFIED_IGBP_MODIS_NOAH"
 LANDUSE TYPE = "MODIFIED_IGBP_MODIS_NOAH" FOUND          61  CATEGORIES           2  SEASONS WATER CATEGORY =           17  SNOW CATEGORY =           15
INITIALIZE THREE Noah LSM RELATED TABLES
Skipping over LUTYPE = USGS
 LANDUSE TYPE = MODIFIED_IGBP_MODIS_NOAH FOUND          20  CATEGORIES
 INPUT SOIL TEXTURE CLASSIFICATION = STAS
 SOIL TEXTURE CLASSIFICATION = STAS FOUND          19  CATEGORIES
ThompMP: computing qr_acr_qg table: qr_acr_qg_V4.dat
Timing for table computation qr_acr_qg_V4.dat:    0.95816 elapsed seconds
Writing qr_acr_qg_V4.dat     in Thompson MP init
ThompMP: read qr_acr_qsV2.dat instead of computing
ThompMP: read freezeH2O.dat instead of computing
 mediation_integrate.G        1249 DATASET=HISTORY
 mediation_integrate.G        1250  grid%id            1  grid%oid            1
Timing for Writing wrfout_d01_2019-11-26_18:00:00 for domain        1:    8.82892 elapsed seconds
 Input data is acceptable to use: wrfbdy_d01
Timing for processing lateral boundary for domain        1:    3.10011 elapsed seconds
WRF NUMBER OF TILES FROM OMP_GET_MAX_THREADS =   1
 Tile Strategy is not specified. Assuming 1D-Y
WRF TILE   1 IS      1 IE     47 JS      1 JE     25
WRF NUMBER OF TILES =   1
 ----------------------------------------
 W-DAMPING  BEGINS AT W-COURANT NUMBER =    1.00000000
 ----------------------------------------
Timing for main: time 2019-11-26_18:00:15 on domain   1:   13.84863 elapsed seconds
Timing for main: time 2019-11-26_18:00:30 on domain   1:    0.23592 elapsed seconds
Timing for main: time 2019-11-26_18:00:45 on domain   1:    0.22880 elapsed seconds
Timing for main: time 2019-11-26_18:01:00 on domain   1:    0.23123 elapsed seconds
Timing for main: time 2019-11-26_18:01:15 on domain   1:    0.22750 elapsed seconds
Timing for main: time 2019-11-26_18:01:30 on domain   1:    0.69275 elapsed seconds
Timing for main: time 2019-11-26_18:01:45 on domain   1:    0.22479 elapsed seconds
Timing for main: time 2019-11-26_18:02:00 on domain   1:    0.23225 elapsed seconds
Timing for main: time 2019-11-26_18:02:15 on domain   1:    0.22670 elapsed seconds
Timing for main: time 2019-11-26_18:02:30 on domain   1:    0.22941 elapsed seconds
Timing for main: time 2019-11-26_18:02:45 on domain   1:    0.22799 elapsed seconds
Timing for main: time 2019-11-26_18:03:00 on domain   1:    0.22633 elapsed seconds
Timing for main: time 2019-11-26_18:03:15 on domain   1:    0.22773 elapsed seconds
Timing for main: time 2019-11-26_18:03:30 on domain   1:    0.22767 elapsed seconds
Timing for main: time 2019-11-26_18:03:45 on domain   1:    0.22970 elapsed seconds
Timing for main: time 2019-11-26_18:04:00 on domain   1:    0.22706 elapsed seconds
Timing for main: time 2019-11-26_18:04:15 on domain   1:    0.22882 elapsed seconds
Timing for main: time 2019-11-26_18:04:30 on domain   1:    0.22572 elapsed seconds
Timing for main: time 2019-11-26_18:04:45 on domain   1:    0.22843 elapsed seconds
Timing for main: time 2019-11-26_18:05:00 on domain   1:    0.22757 elapsed seconds
Timing for main: time 2019-11-26_18:05:15 on domain   1:    0.23112 elapsed seconds
Timing for main: time 2019-11-26_18:05:30 on domain   1:    0.22521 elapsed seconds
Timing for main: time 2019-11-26_18:05:45 on domain   1:    0.22747 elapsed seconds
Timing for main: time 2019-11-26_18:06:00 on domain   1:    0.22756 elapsed seconds
Timing for main: time 2019-11-26_18:06:15 on domain   1:    0.22719 elapsed seconds
Timing for main: time 2019-11-26_18:06:30 on domain   1:    0.22851 elapsed seconds
Timing for main: time 2019-11-26_18:06:45 on domain   1:    0.22581 elapsed seconds
Timing for main: time 2019-11-26_18:07:00 on domain   1:    0.22975 elapsed seconds
Timing for main: time 2019-11-26_18:07:15 on domain   1:    0.22638 elapsed seconds
Timing for main: time 2019-11-26_18:07:30 on domain   1:    0.22832 elapsed seconds
Timing for main: time 2019-11-26_18:07:45 on domain   1:    0.22733 elapsed seconds
Timing for main: time 2019-11-26_18:08:00 on domain   1:    0.22738 elapsed seconds
Timing for main: time 2019-11-26_18:08:15 on domain   1:    0.22829 elapsed seconds
Timing for main: time 2019-11-26_18:08:30 on domain   1:    0.22723 elapsed seconds
Timing for main: time 2019-11-26_18:08:45 on domain   1:    0.22915 elapsed seconds
Timing for main: time 2019-11-26_18:09:00 on domain   1:    0.22734 elapsed seconds
Timing for main: time 2019-11-26_18:09:15 on domain   1:    0.22793 elapsed seconds
Timing for main: time 2019-11-26_18:09:30 on domain   1:    0.22766 elapsed seconds
Timing for main: time 2019-11-26_18:09:45 on domain   1:    0.25638 elapsed seconds
Timing for main: time 2019-11-26_18:10:00 on domain   1:    0.24594 elapsed seconds
Timing for main: time 2019-11-26_18:10:15 on domain   1:    2.03257 elapsed seconds
Timing for main: time 2019-11-26_18:10:30 on domain   1:    1.20530 elapsed seconds
Timing for main: time 2019-11-26_18:10:45 on domain   1:    0.38079 elapsed seconds
Timing for main: time 2019-11-26_18:11:00 on domain   1:    0.22782 elapsed seconds
Timing for main: time 2019-11-26_18:11:15 on domain   1:    0.23358 elapsed seconds
Timing for main: time 2019-11-26_18:11:30 on domain   1:    0.22690 elapsed seconds
Timing for main: time 2019-11-26_18:11:45 on domain   1:    0.23105 elapsed seconds
Timing for main: time 2019-11-26_18:12:00 on domain   1:    0.22752 elapsed seconds
Timing for main: time 2019-11-26_18:12:15 on domain   1:    0.22917 elapsed seconds
Timing for main: time 2019-11-26_18:12:30 on domain   1:    0.23020 elapsed seconds
Timing for main: time 2019-11-26_18:12:45 on domain   1:    0.22848 elapsed seconds
Timing for main: time 2019-11-26_18:13:00 on domain   1:    0.23049 elapsed seconds
Timing for main: time 2019-11-26_18:13:15 on domain   1:    0.22803 elapsed seconds
Timing for main: time 2019-11-26_18:13:30 on domain   1:    0.23219 elapsed seconds
Timing for main: time 2019-11-26_18:13:45 on domain   1:    0.22884 elapsed seconds
Timing for main: time 2019-11-26_18:14:00 on domain   1:    0.23052 elapsed seconds
Timing for main: time 2019-11-26_18:14:15 on domain   1:    0.23214 elapsed seconds
Timing for main: time 2019-11-26_18:14:30 on domain   1:    0.23094 elapsed seconds
Timing for main: time 2019-11-26_18:14:45 on domain   1:    0.23087 elapsed seconds
Timing for main: time 2019-11-26_18:15:00 on domain   1:    0.23229 elapsed seconds
Timing for main: time 2019-11-26_18:15:15 on domain   1:    0.23027 elapsed seconds
Timing for main: time 2019-11-26_18:15:30 on domain   1:    0.23125 elapsed seconds
Timing for main: time 2019-11-26_18:15:45 on domain   1:    0.23361 elapsed seconds
Timing for main: time 2019-11-26_18:16:00 on domain   1:    0.23498 elapsed seconds
Timing for main: time 2019-11-26_18:16:15 on domain   1:    0.23136 elapsed seconds
Timing for main: time 2019-11-26_18:16:30 on domain   1:    0.23302 elapsed seconds
Timing for main: time 2019-11-26_18:16:45 on domain   1:    0.23485 elapsed seconds
Timing for main: time 2019-11-26_18:17:00 on domain   1:    0.23213 elapsed seconds
Timing for main: time 2019-11-26_18:17:15 on domain   1:    0.23368 elapsed seconds
Timing for main: time 2019-11-26_18:17:30 on domain   1:    0.23322 elapsed seconds
Timing for main: time 2019-11-26_18:17:45 on domain   1:    0.23403 elapsed seconds
Timing for main: time 2019-11-26_18:18:00 on domain   1:    0.23397 elapsed seconds
Timing for main: time 2019-11-26_18:18:15 on domain   1:    0.23391 elapsed seconds
Timing for main: time 2019-11-26_18:18:30 on domain   1:    0.23535 elapsed seconds
Timing for main: time 2019-11-26_18:18:45 on domain   1:    0.23519 elapsed seconds
Timing for main: time 2019-11-26_18:19:00 on domain   1:    0.23521 elapsed seconds
Timing for main: time 2019-11-26_18:19:15 on domain   1:    0.23534 elapsed seconds
Timing for main: time 2019-11-26_18:19:30 on domain   1:    0.23487 elapsed seconds
Timing for main: time 2019-11-26_18:19:45 on domain   1:    0.23614 elapsed seconds
Timing for main: time 2019-11-26_18:20:00 on domain   1:    0.23611 elapsed seconds
Timing for main: time 2019-11-26_18:20:15 on domain   1:    2.02894 elapsed seconds
Timing for main: time 2019-11-26_18:20:30 on domain   1:    0.23690 elapsed seconds
Timing for main: time 2019-11-26_18:20:45 on domain   1:    0.23628 elapsed seconds
Timing for main: time 2019-11-26_18:21:00 on domain   1:    0.23638 elapsed seconds
Timing for main: time 2019-11-26_18:21:15 on domain   1:    0.23638 elapsed seconds
Timing for main: time 2019-11-26_18:21:30 on domain   1:    0.23674 elapsed seconds
Timing for main: time 2019-11-26_18:21:45 on domain   1:    0.23771 elapsed seconds
Timing for main: time 2019-11-26_18:22:00 on domain   1:    0.23722 elapsed seconds
Timing for main: time 2019-11-26_18:22:15 on domain   1:    0.23692 elapsed seconds
Timing for main: time 2019-11-26_18:22:30 on domain   1:    0.23742 elapsed seconds
Timing for main: time 2019-11-26_18:22:45 on domain   1:    0.23740 elapsed seconds
Timing for main: time 2019-11-26_18:23:00 on domain   1:    0.23765 elapsed seconds
Timing for main: time 2019-11-26_18:23:15 on domain   1:    0.23759 elapsed seconds
Timing for main: time 2019-11-26_18:23:30 on domain   1:    0.23848 elapsed seconds
Timing for main: time 2019-11-26_18:23:45 on domain   1:    0.23796 elapsed seconds
Timing for main: time 2019-11-26_18:24:00 on domain   1:    0.24011 elapsed seconds
Timing for main: time 2019-11-26_18:24:15 on domain   1:    0.23983 elapsed seconds
Timing for main: time 2019-11-26_18:24:30 on domain   1:    0.23925 elapsed seconds
Timing for main: time 2019-11-26_18:24:45 on domain   1:    0.23931 elapsed seconds
Timing for main: time 2019-11-26_18:25:00 on domain   1:    0.23954 elapsed seconds
Timing for main: time 2019-11-26_18:25:15 on domain   1:    0.23987 elapsed seconds
Timing for main: time 2019-11-26_18:25:30 on domain   1:    0.24031 elapsed seconds
Timing for main: time 2019-11-26_18:25:45 on domain   1:    0.24038 elapsed seconds
Timing for main: time 2019-11-26_18:26:00 on domain   1:    0.24000 elapsed seconds
Timing for main: time 2019-11-26_18:26:15 on domain   1:    0.24064 elapsed seconds
Timing for main: time 2019-11-26_18:26:30 on domain   1:    0.23983 elapsed seconds
Timing for main: time 2019-11-26_18:26:45 on domain   1:    0.24064 elapsed seconds
Timing for main: time 2019-11-26_18:27:00 on domain   1:    0.24081 elapsed seconds
Timing for main: time 2019-11-26_18:27:15 on domain   1:    0.24076 elapsed seconds
Timing for main: time 2019-11-26_18:27:30 on domain   1:    0.24099 elapsed seconds
Timing for main: time 2019-11-26_18:27:45 on domain   1:    0.24133 elapsed seconds
Timing for main: time 2019-11-26_18:28:00 on domain   1:    0.24153 elapsed seconds
Timing for main: time 2019-11-26_18:28:15 on domain   1:    0.24164 elapsed seconds
Timing for main: time 2019-11-26_18:28:30 on domain   1:    0.24138 elapsed seconds
Timing for main: time 2019-11-26_18:28:45 on domain   1:    0.24255 elapsed seconds
Timing for main: time 2019-11-26_18:29:00 on domain   1:    0.24094 elapsed seconds
Timing for main: time 2019-11-26_18:29:15 on domain   1:    0.24161 elapsed seconds
Timing for main: time 2019-11-26_18:29:30 on domain   1:    0.24260 elapsed seconds
Timing for main: time 2019-11-26_18:29:45 on domain   1:    0.24608 elapsed seconds
Timing for main: time 2019-11-26_18:30:00 on domain   1:    0.24110 elapsed seconds
Timing for main: time 2019-11-26_18:30:15 on domain   1:    2.04557 elapsed seconds
Timing for main: time 2019-11-26_18:30:30 on domain   1:    0.24718 elapsed seconds
Timing for main: time 2019-11-26_18:30:45 on domain   1:    0.24337 elapsed seconds
Timing for main: time 2019-11-26_18:31:00 on domain   1:    0.24649 elapsed seconds
Timing for main: time 2019-11-26_18:31:15 on domain   1:    0.24128 elapsed seconds
Timing for main: time 2019-11-26_18:31:30 on domain   1:    0.24354 elapsed seconds
Timing for main: time 2019-11-26_18:31:45 on domain   1:    0.24312 elapsed seconds
Timing for main: time 2019-11-26_18:32:00 on domain   1:    0.24702 elapsed seconds
Timing for main: time 2019-11-26_18:32:15 on domain   1:    0.24418 elapsed seconds
Timing for main: time 2019-11-26_18:32:30 on domain   1:    0.24367 elapsed seconds
Timing for main: time 2019-11-26_18:32:45 on domain   1:    0.24669 elapsed seconds
Timing for main: time 2019-11-26_18:33:00 on domain   1:    0.24424 elapsed seconds
Timing for main: time 2019-11-26_18:33:15 on domain   1:    0.24526 elapsed seconds
Timing for main: time 2019-11-26_18:33:30 on domain   1:    0.24628 elapsed seconds
Timing for main: time 2019-11-26_18:33:45 on domain   1:    0.24243 elapsed seconds
Timing for main: time 2019-11-26_18:34:00 on domain   1:    0.24501 elapsed seconds
Timing for main: time 2019-11-26_18:34:15 on domain   1:    0.24817 elapsed seconds
Timing for main: time 2019-11-26_18:34:30 on domain   1:    0.24449 elapsed seconds
Timing for main: time 2019-11-26_18:34:45 on domain   1:    0.24657 elapsed seconds
Timing for main: time 2019-11-26_18:35:00 on domain   1:    0.24638 elapsed seconds
Timing for main: time 2019-11-26_18:35:15 on domain   1:    0.24550 elapsed seconds
Timing for main: time 2019-11-26_18:35:30 on domain   1:    0.24516 elapsed seconds
Timing for main: time 2019-11-26_18:35:45 on domain   1:    0.24814 elapsed seconds
Timing for main: time 2019-11-26_18:36:00 on domain   1:    0.24453 elapsed seconds
Timing for main: time 2019-11-26_18:36:15 on domain   1:    0.24837 elapsed seconds
Timing for main: time 2019-11-26_18:36:30 on domain   1:    0.24552 elapsed seconds
Timing for main: time 2019-11-26_18:36:45 on domain   1:    0.24593 elapsed seconds
Timing for main: time 2019-11-26_18:37:00 on domain   1:    0.24753 elapsed seconds
Timing for main: time 2019-11-26_18:37:15 on domain   1:    0.24687 elapsed seconds
Timing for main: time 2019-11-26_18:37:30 on domain   1:    0.24650 elapsed seconds
Timing for main: time 2019-11-26_18:37:45 on domain   1:    0.24874 elapsed seconds
Timing for main: time 2019-11-26_18:38:00 on domain   1:    0.24814 elapsed seconds
Timing for main: time 2019-11-26_18:38:15 on domain   1:    0.24659 elapsed seconds
Timing for main: time 2019-11-26_18:38:30 on domain   1:    0.24981 elapsed seconds
Timing for main: time 2019-11-26_18:38:45 on domain   1:    0.24814 elapsed seconds
Timing for main: time 2019-11-26_18:39:00 on domain   1:    0.24786 elapsed seconds
Timing for main: time 2019-11-26_18:39:15 on domain   1:    0.24973 elapsed seconds
Timing for main: time 2019-11-26_18:39:30 on domain   1:    0.24700 elapsed seconds
Timing for main: time 2019-11-26_18:39:45 on domain   1:    0.24816 elapsed seconds
Timing for main: time 2019-11-26_18:40:00 on domain   1:    0.24892 elapsed seconds
Timing for main: time 2019-11-26_18:40:15 on domain   1:    2.09869 elapsed seconds
Timing for main: time 2019-11-26_18:40:30 on domain   1:    0.25166 elapsed seconds
Timing for main: time 2019-11-26_18:40:45 on domain   1:    0.25043 elapsed seconds
Timing for main: time 2019-11-26_18:41:00 on domain   1:    0.24937 elapsed seconds
Timing for main: time 2019-11-26_18:41:15 on domain   1:    0.24632 elapsed seconds
Timing for main: time 2019-11-26_18:41:30 on domain   1:    0.25157 elapsed seconds
Timing for main: time 2019-11-26_18:41:45 on domain   1:    0.25002 elapsed seconds
Timing for main: time 2019-11-26_18:42:00 on domain   1:    0.25002 elapsed seconds
Timing for main: time 2019-11-26_18:42:15 on domain   1:    0.36647 elapsed seconds
Timing for main: time 2019-11-26_18:42:30 on domain   1:    1.14469 elapsed seconds
Timing for main: time 2019-11-26_18:42:45 on domain   1:    0.24624 elapsed seconds
Timing for main: time 2019-11-26_18:43:00 on domain   1:    0.24525 elapsed seconds
Timing for main: time 2019-11-26_18:43:15 on domain   1:    0.26274 elapsed seconds
Timing for main: time 2019-11-26_18:43:30 on domain   1:    0.24455 elapsed seconds
Timing for main: time 2019-11-26_18:43:45 on domain   1:    0.25035 elapsed seconds
Timing for main: time 2019-11-26_18:44:00 on domain   1:    0.25004 elapsed seconds
Timing for main: time 2019-11-26_18:44:15 on domain   1:    0.25442 elapsed seconds
Timing for main: time 2019-11-26_18:44:30 on domain   1:    0.24894 elapsed seconds
Timing for main: time 2019-11-26_18:44:45 on domain   1:    0.25381 elapsed seconds
Timing for main: time 2019-11-26_18:45:00 on domain   1:    0.24942 elapsed seconds
Timing for main: time 2019-11-26_18:45:15 on domain   1:    0.25213 elapsed seconds
Timing for main: time 2019-11-26_18:45:30 on domain   1:    0.24967 elapsed seconds
Timing for main: time 2019-11-26_18:45:45 on domain   1:    0.25247 elapsed seconds
Timing for main: time 2019-11-26_18:46:00 on domain   1:    0.25281 elapsed seconds
Timing for main: time 2019-11-26_18:46:15 on domain   1:    1.01567 elapsed seconds
Timing for main: time 2019-11-26_18:46:30 on domain   1:    1.98489 elapsed seconds
Timing for main: time 2019-11-26_18:46:45 on domain   1:    0.27943 elapsed seconds
Timing for main: time 2019-11-26_18:47:00 on domain   1:    0.25053 elapsed seconds
Timing for main: time 2019-11-26_18:47:15 on domain   1:    0.25460 elapsed seconds
Timing for main: time 2019-11-26_18:47:30 on domain   1:    0.25248 elapsed seconds
Timing for main: time 2019-11-26_18:47:45 on domain   1:    0.25415 elapsed seconds
Timing for main: time 2019-11-26_18:48:00 on domain   1:    0.25129 elapsed seconds
Timing for main: time 2019-11-26_18:48:15 on domain   1:    0.25297 elapsed seconds
Timing for main: time 2019-11-26_18:48:30 on domain   1:    0.25181 elapsed seconds
Timing for main: time 2019-11-26_18:48:45 on domain   1:    0.25306 elapsed seconds
Timing for main: time 2019-11-26_18:49:00 on domain   1:    0.25498 elapsed seconds
Timing for main: time 2019-11-26_18:49:15 on domain   1:    0.25535 elapsed seconds
Timing for main: time 2019-11-26_18:49:30 on domain   1:    0.25270 elapsed seconds
Timing for main: time 2019-11-26_18:49:45 on domain   1:    0.25541 elapsed seconds
Timing for main: time 2019-11-26_18:50:00 on domain   1:    0.25299 elapsed seconds
Timing for main: time 2019-11-26_18:50:15 on domain   1:    2.13399 elapsed seconds
Timing for main: time 2019-11-26_18:50:30 on domain   1:    0.25569 elapsed seconds
Timing for main: time 2019-11-26_18:50:45 on domain   1:    0.25403 elapsed seconds
Timing for main: time 2019-11-26_18:51:00 on domain   1:    0.25570 elapsed seconds
Timing for main: time 2019-11-26_18:51:15 on domain   1:    0.25247 elapsed seconds
Timing for main: time 2019-11-26_18:51:30 on domain   1:    0.25364 elapsed seconds
Timing for main: time 2019-11-26_18:51:45 on domain   1:    0.25491 elapsed seconds
Timing for main: time 2019-11-26_18:52:00 on domain   1:    0.25236 elapsed seconds
Timing for main: time 2019-11-26_18:52:15 on domain   1:    0.25299 elapsed seconds
Timing for main: time 2019-11-26_18:52:30 on domain   1:    0.25385 elapsed seconds
Timing for main: time 2019-11-26_18:52:45 on domain   1:    0.25638 elapsed seconds
Timing for main: time 2019-11-26_18:53:00 on domain   1:    0.25440 elapsed seconds
Timing for main: time 2019-11-26_18:53:15 on domain   1:    0.25687 elapsed seconds
Timing for main: time 2019-11-26_18:53:30 on domain   1:    0.25383 elapsed seconds
Timing for main: time 2019-11-26_18:53:45 on domain   1:    0.25597 elapsed seconds
Timing for main: time 2019-11-26_18:54:00 on domain   1:    0.25334 elapsed seconds
Timing for main: time 2019-11-26_18:54:15 on domain   1:    0.25442 elapsed seconds
Timing for main: time 2019-11-26_18:54:30 on domain   1:    0.25531 elapsed seconds
Timing for main: time 2019-11-26_18:54:45 on domain   1:    0.25443 elapsed seconds
Timing for main: time 2019-11-26_18:55:00 on domain   1:    0.25529 elapsed seconds
Timing for main: time 2019-11-26_18:55:15 on domain   1:    0.25605 elapsed seconds
Timing for main: time 2019-11-26_18:55:30 on domain   1:    0.25289 elapsed seconds
Timing for main: time 2019-11-26_18:55:45 on domain   1:    0.25464 elapsed seconds
Timing for main: time 2019-11-26_18:56:00 on domain   1:    0.25561 elapsed seconds
Timing for main: time 2019-11-26_18:56:15 on domain   1:    0.25586 elapsed seconds
Timing for main: time 2019-11-26_18:56:30 on domain   1:    0.25439 elapsed seconds
Timing for main: time 2019-11-26_18:56:45 on domain   1:    0.25493 elapsed seconds
Timing for main: time 2019-11-26_18:57:00 on domain   1:    0.25685 elapsed seconds
Timing for main: time 2019-11-26_18:57:15 on domain   1:    0.25592 elapsed seconds
Timing for main: time 2019-11-26_18:57:30 on domain   1:    0.25584 elapsed seconds
Timing for main: time 2019-11-26_18:57:45 on domain   1:    0.25614 elapsed seconds
Timing for main: time 2019-11-26_18:58:00 on domain   1:    0.25678 elapsed seconds
Timing for main: time 2019-11-26_18:58:15 on domain   1:    0.25471 elapsed seconds
Timing for main: time 2019-11-26_18:58:30 on domain   1:    0.25864 elapsed seconds
Timing for main: time 2019-11-26_18:58:45 on domain   1:    0.25573 elapsed seconds
Timing for main: time 2019-11-26_18:59:00 on domain   1:    0.25542 elapsed seconds
Timing for main: time 2019-11-26_18:59:15 on domain   1:    0.25767 elapsed seconds
Timing for main: time 2019-11-26_18:59:30 on domain   1:    0.25549 elapsed seconds
Timing for main: time 2019-11-26_18:59:45 on domain   1:    0.25783 elapsed seconds
Timing for main: time 2019-11-26_19:00:00 on domain   1:    0.25402 elapsed seconds
 mediation_integrate.G        1249 DATASET=HISTORY
 mediation_integrate.G        1250  grid%id            1  grid%oid            2
Timing for Writing wrfout_d01_2019-11-26_19:00:00 for domain        1:    7.53461 elapsed seconds
Timing for main: time 2019-11-26_19:00:15 on domain   1:    9.66977 elapsed seconds
Timing for main: time 2019-11-26_19:00:30 on domain   1:    0.25629 elapsed seconds
Timing for main: time 2019-11-26_19:00:45 on domain   1:    0.26080 elapsed seconds
Timing for main: time 2019-11-26_19:01:00 on domain   1:    0.25811 elapsed seconds
Timing for main: time 2019-11-26_19:01:15 on domain   1:    0.25808 elapsed seconds
Timing for main: time 2019-11-26_19:01:30 on domain   1:    0.26028 elapsed seconds
Timing for main: time 2019-11-26_19:01:45 on domain   1:    0.25807 elapsed seconds
Timing for main: time 2019-11-26_19:02:00 on domain   1:    0.26242 elapsed seconds
Timing for main: time 2019-11-26_19:02:15 on domain   1:    0.25640 elapsed seconds
Timing for main: time 2019-11-26_19:02:30 on domain   1:    0.25914 elapsed seconds
Timing for main: time 2019-11-26_19:02:45 on domain   1:    0.25980 elapsed seconds
Timing for main: time 2019-11-26_19:03:00 on domain   1:    0.25967 elapsed seconds
Timing for main: time 2019-11-26_19:03:15 on domain   1:    0.26036 elapsed seconds
Timing for main: time 2019-11-26_19:03:30 on domain   1:    0.25959 elapsed seconds
Timing for main: time 2019-11-26_19:03:45 on domain   1:    0.25948 elapsed seconds
Timing for main: time 2019-11-26_19:04:00 on domain   1:    0.26508 elapsed seconds
Timing for main: time 2019-11-26_19:04:15 on domain   1:    0.25718 elapsed seconds
Timing for main: time 2019-11-26_19:04:30 on domain   1:    0.26030 elapsed seconds
Timing for main: time 2019-11-26_19:04:45 on domain   1:    0.26261 elapsed seconds
Timing for main: time 2019-11-26_19:05:00 on domain   1:    0.25704 elapsed seconds
Timing for main: time 2019-11-26_19:05:15 on domain   1:    0.26191 elapsed seconds
Timing for main: time 2019-11-26_19:05:30 on domain   1:    0.25973 elapsed seconds
Timing for main: time 2019-11-26_19:05:45 on domain   1:    0.26230 elapsed seconds
Timing for main: time 2019-11-26_19:06:00 on domain   1:    0.26147 elapsed seconds
Timing for main: time 2019-11-26_19:06:15 on domain   1:    0.25870 elapsed seconds
Timing for main: time 2019-11-26_19:06:30 on domain   1:    0.26109 elapsed seconds
Timing for main: time 2019-11-26_19:06:45 on domain   1:    0.26360 elapsed seconds
Timing for main: time 2019-11-26_19:07:00 on domain   1:    0.26271 elapsed seconds
Timing for main: time 2019-11-26_19:07:15 on domain   1:    0.26296 elapsed seconds
Timing for main: time 2019-11-26_19:07:30 on domain   1:    0.25960 elapsed seconds
Timing for main: time 2019-11-26_19:07:45 on domain   1:    0.26381 elapsed seconds
Timing for main: time 2019-11-26_19:08:00 on domain   1:    0.26015 elapsed seconds
Timing for main: time 2019-11-26_19:08:15 on domain   1:    0.26190 elapsed seconds
Timing for main: time 2019-11-26_19:08:30 on domain   1:    0.26392 elapsed seconds
Timing for main: time 2019-11-26_19:08:45 on domain   1:    0.26388 elapsed seconds
Timing for main: time 2019-11-26_19:09:00 on domain   1:    0.26228 elapsed seconds
Timing for main: time 2019-11-26_19:09:15 on domain   1:    0.26193 elapsed seconds
Timing for main: time 2019-11-26_19:09:30 on domain   1:    0.26261 elapsed seconds
Timing for main: time 2019-11-26_19:09:45 on domain   1:    0.26328 elapsed seconds
Timing for main: time 2019-11-26_19:10:00 on domain   1:    0.26243 elapsed seconds
Timing for main: time 2019-11-26_19:10:15 on domain   1:    2.14979 elapsed seconds
Timing for main: time 2019-11-26_19:10:30 on domain   1:    0.26410 elapsed seconds
Timing for main: time 2019-11-26_19:10:45 on domain   1:    0.26387 elapsed seconds
Timing for main: time 2019-11-26_19:11:00 on domain   1:    0.26280 elapsed seconds
Timing for main: time 2019-11-26_19:11:15 on domain   1:    0.26377 elapsed seconds
Timing for main: time 2019-11-26_19:11:30 on domain   1:    0.26285 elapsed seconds
Timing for main: time 2019-11-26_19:11:45 on domain   1:    0.26402 elapsed seconds
Timing for main: time 2019-11-26_19:12:00 on domain   1:    0.26295 elapsed seconds
Timing for main: time 2019-11-26_19:12:15 on domain   1:    0.26445 elapsed seconds
Timing for main: time 2019-11-26_19:12:30 on domain   1:    0.26506 elapsed seconds
Timing for main: time 2019-11-26_19:12:45 on domain   1:    0.26262 elapsed seconds
Timing for main: time 2019-11-26_19:13:00 on domain   1:    0.26563 elapsed seconds
Timing for main: time 2019-11-26_19:13:15 on domain   1:    0.26368 elapsed seconds
Timing for main: time 2019-11-26_19:13:30 on domain   1:    0.26742 elapsed seconds
Timing for main: time 2019-11-26_19:13:45 on domain   1:    0.26465 elapsed seconds
Timing for main: time 2019-11-26_19:14:00 on domain   1:    0.26611 elapsed seconds
Timing for main: time 2019-11-26_19:14:15 on domain   1:    0.26607 elapsed seconds
Timing for main: time 2019-11-26_19:14:30 on domain   1:    0.26329 elapsed seconds
Timing for main: time 2019-11-26_19:14:45 on domain   1:    0.26699 elapsed seconds
Timing for main: time 2019-11-26_19:15:00 on domain   1:    0.26551 elapsed seconds
Timing for main: time 2019-11-26_19:15:15 on domain   1:    0.26442 elapsed seconds
Timing for main: time 2019-11-26_19:15:30 on domain   1:    0.26799 elapsed seconds
Timing for main: time 2019-11-26_19:15:45 on domain   1:    0.26542 elapsed seconds
Timing for main: time 2019-11-26_19:16:00 on domain   1:    0.26522 elapsed seconds
Timing for main: time 2019-11-26_19:16:15 on domain   1:    0.26488 elapsed seconds
Timing for main: time 2019-11-26_19:16:30 on domain   1:    0.26497 elapsed seconds
Timing for main: time 2019-11-26_19:16:45 on domain   1:    0.26614 elapsed seconds
Timing for main: time 2019-11-26_19:17:00 on domain   1:    0.26745 elapsed seconds
Timing for main: time 2019-11-26_19:17:15 on domain   1:    0.26351 elapsed seconds
Timing for main: time 2019-11-26_19:17:30 on domain   1:    0.26641 elapsed seconds
Timing for main: time 2019-11-26_19:17:45 on domain   1:    0.26823 elapsed seconds
Timing for main: time 2019-11-26_19:18:00 on domain   1:    0.26711 elapsed seconds
Timing for main: time 2019-11-26_19:18:15 on domain   1:    0.26634 elapsed seconds
Timing for main: time 2019-11-26_19:18:30 on domain   1:    0.26674 elapsed seconds
Timing for main: time 2019-11-26_19:18:45 on domain   1:    0.26789 elapsed seconds
Timing for main: time 2019-11-26_19:19:00 on domain   1:    0.26628 elapsed seconds
Timing for main: time 2019-11-26_19:19:15 on domain   1:    0.26791 elapsed seconds
Timing for main: time 2019-11-26_19:19:30 on domain   1:    0.26712 elapsed seconds
Timing for main: time 2019-11-26_19:19:45 on domain   1:    0.26575 elapsed seconds
Timing for main: time 2019-11-26_19:20:00 on domain   1:    0.26624 elapsed seconds
Timing for main: time 2019-11-26_19:20:15 on domain   1:    2.14771 elapsed seconds
Timing for main: time 2019-11-26_19:20:30 on domain   1:    0.26206 elapsed seconds
Timing for main: time 2019-11-26_19:20:45 on domain   1:    0.26769 elapsed seconds
Timing for main: time 2019-11-26_19:21:00 on domain   1:    0.26706 elapsed seconds
Timing for main: time 2019-11-26_19:21:15 on domain   1:    0.26824 elapsed seconds
Timing for main: time 2019-11-26_19:21:30 on domain   1:    0.26668 elapsed seconds
Timing for main: time 2019-11-26_19:21:45 on domain   1:    0.26960 elapsed seconds
Timing for main: time 2019-11-26_19:22:00 on domain   1:    0.26788 elapsed seconds
Timing for main: time 2019-11-26_19:22:15 on domain   1:    0.26961 elapsed seconds
Timing for main: time 2019-11-26_19:22:30 on domain   1:    0.26953 elapsed seconds
Timing for main: time 2019-11-26_19:22:45 on domain   1:    0.26853 elapsed seconds
Timing for main: time 2019-11-26_19:23:00 on domain   1:    0.26777 elapsed seconds
Timing for main: time 2019-11-26_19:23:15 on domain   1:    0.26770 elapsed seconds
Timing for main: time 2019-11-26_19:23:30 on domain   1:    0.27492 elapsed seconds
Timing for main: time 2019-11-26_19:23:45 on domain   1:    0.28284 elapsed seconds
Timing for main: time 2019-11-26_19:24:00 on domain   1:    0.26724 elapsed seconds
Timing for main: time 2019-11-26_19:24:15 on domain   1:    0.26594 elapsed seconds
Timing for main: time 2019-11-26_19:24:30 on domain   1:    0.27078 elapsed seconds
Timing for main: time 2019-11-26_19:24:45 on domain   1:    0.26810 elapsed seconds
Timing for main: time 2019-11-26_19:25:00 on domain   1:    0.26988 elapsed seconds
Timing for main: time 2019-11-26_19:25:15 on domain   1:    0.26911 elapsed seconds
Timing for main: time 2019-11-26_19:25:30 on domain   1:    0.26901 elapsed seconds
Timing for main: time 2019-11-26_19:25:45 on domain   1:    0.26817 elapsed seconds
Timing for main: time 2019-11-26_19:26:00 on domain   1:    0.26921 elapsed seconds
Timing for main: time 2019-11-26_19:26:15 on domain   1:    0.26871 elapsed seconds
Timing for main: time 2019-11-26_19:26:30 on domain   1:    0.27119 elapsed seconds
Timing for main: time 2019-11-26_19:26:45 on domain   1:    0.27091 elapsed seconds
Timing for main: time 2019-11-26_19:27:00 on domain   1:    0.26899 elapsed seconds
Timing for main: time 2019-11-26_19:27:15 on domain   1:    0.26798 elapsed seconds
Timing for main: time 2019-11-26_19:27:30 on domain   1:    0.69573 elapsed seconds
Timing for main: time 2019-11-26_19:27:45 on domain   1:    0.72127 elapsed seconds
Timing for main: time 2019-11-26_19:28:00 on domain   1:    0.26960 elapsed seconds
Timing for main: time 2019-11-26_19:28:15 on domain   1:    0.27301 elapsed seconds
Timing for main: time 2019-11-26_19:28:30 on domain   1:    0.26967 elapsed seconds
Timing for main: time 2019-11-26_19:28:45 on domain   1:    0.26867 elapsed seconds
Timing for main: time 2019-11-26_19:29:00 on domain   1:    0.26826 elapsed seconds
Timing for main: time 2019-11-26_19:29:15 on domain   1:    0.26904 elapsed seconds
Timing for main: time 2019-11-26_19:29:30 on domain   1:    0.27036 elapsed seconds
Timing for main: time 2019-11-26_19:29:45 on domain   1:    0.26906 elapsed seconds
Timing for main: time 2019-11-26_19:30:00 on domain   1:    0.27062 elapsed seconds
Timing for main: time 2019-11-26_19:30:15 on domain   1:    2.16771 elapsed seconds
Timing for main: time 2019-11-26_19:30:30 on domain   1:    0.27490 elapsed seconds
Timing for main: time 2019-11-26_19:30:45 on domain   1:    0.26762 elapsed seconds
Timing for main: time 2019-11-26_19:31:00 on domain   1:    0.27129 elapsed seconds
Timing for main: time 2019-11-26_19:31:15 on domain   1:    0.26991 elapsed seconds
Timing for main: time 2019-11-26_19:31:30 on domain   1:    0.26785 elapsed seconds
Timing for main: time 2019-11-26_19:31:45 on domain   1:    0.27025 elapsed seconds
Timing for main: time 2019-11-26_19:32:00 on domain   1:    0.26879 elapsed seconds
Timing for main: time 2019-11-26_19:32:15 on domain   1:    0.79202 elapsed seconds
Timing for main: time 2019-11-26_19:32:30 on domain   1:    0.27466 elapsed seconds
Timing for main: time 2019-11-26_19:32:45 on domain   1:    0.26761 elapsed seconds
Timing for main: time 2019-11-26_19:33:00 on domain   1:    0.27039 elapsed seconds
Timing for main: time 2019-11-26_19:33:15 on domain   1:    0.26983 elapsed seconds
Timing for main: time 2019-11-26_19:33:30 on domain   1:    0.27082 elapsed seconds
Timing for main: time 2019-11-26_19:33:45 on domain   1:    0.26895 elapsed seconds
Timing for main: time 2019-11-26_19:34:00 on domain   1:    0.26976 elapsed seconds
Timing for main: time 2019-11-26_19:34:15 on domain   1:    0.27041 elapsed seconds
Timing for main: time 2019-11-26_19:34:30 on domain   1:    0.26845 elapsed seconds
Timing for main: time 2019-11-26_19:34:45 on domain   1:    0.27367 elapsed seconds
Timing for main: time 2019-11-26_19:35:00 on domain   1:    0.26680 elapsed seconds
Timing for main: time 2019-11-26_19:35:15 on domain   1:    0.27042 elapsed seconds
Timing for main: time 2019-11-26_19:35:30 on domain   1:    0.27001 elapsed seconds
Timing for main: time 2019-11-26_19:35:45 on domain   1:    0.26853 elapsed seconds
Timing for main: time 2019-11-26_19:36:00 on domain   1:    0.27189 elapsed seconds
Timing for main: time 2019-11-26_19:36:15 on domain   1:    0.26851 elapsed seconds
Timing for main: time 2019-11-26_19:36:30 on domain   1:    0.26748 elapsed seconds
Timing for main: time 2019-11-26_19:36:45 on domain   1:    0.27011 elapsed seconds
Timing for main: time 2019-11-26_19:37:00 on domain   1:    0.27095 elapsed seconds
Timing for main: time 2019-11-26_19:37:15 on domain   1:    0.27435 elapsed seconds
Timing for main: time 2019-11-26_19:37:30 on domain   1:    0.26861 elapsed seconds
Timing for main: time 2019-11-26_19:37:45 on domain   1:    0.26905 elapsed seconds
Timing for main: time 2019-11-26_19:38:00 on domain   1:    0.27002 elapsed seconds
Timing for main: time 2019-11-26_19:38:15 on domain   1:    0.26977 elapsed seconds
Timing for main: time 2019-11-26_19:38:30 on domain   1:    0.27345 elapsed seconds
Timing for main: time 2019-11-26_19:38:45 on domain   1:    0.26723 elapsed seconds
Timing for main: time 2019-11-26_19:39:00 on domain   1:    0.26938 elapsed seconds
Timing for main: time 2019-11-26_19:39:15 on domain   1:    0.32269 elapsed seconds
Timing for main: time 2019-11-26_19:39:30 on domain   1:    0.27914 elapsed seconds
Timing for main: time 2019-11-26_19:39:45 on domain   1:    0.27182 elapsed seconds
Timing for main: time 2019-11-26_19:40:00 on domain   1:    0.27091 elapsed seconds
Timing for main: time 2019-11-26_19:40:15 on domain   1:    2.80166 elapsed seconds
Timing for main: time 2019-11-26_19:40:30 on domain   1:    0.66628 elapsed seconds
Timing for main: time 2019-11-26_19:40:45 on domain   1:    0.27360 elapsed seconds
Timing for main: time 2019-11-26_19:41:00 on domain   1:    0.26624 elapsed seconds
Timing for main: time 2019-11-26_19:41:15 on domain   1:    0.27053 elapsed seconds
Timing for main: time 2019-11-26_19:41:30 on domain   1:    0.27043 elapsed seconds
Timing for main: time 2019-11-26_19:41:45 on domain   1:    0.27168 elapsed seconds
Timing for main: time 2019-11-26_19:42:00 on domain   1:    0.27107 elapsed seconds
Timing for main: time 2019-11-26_19:42:15 on domain   1:    0.27094 elapsed seconds
Timing for main: time 2019-11-26_19:42:30 on domain   1:    0.26894 elapsed seconds
Timing for main: time 2019-11-26_19:42:45 on domain   1:    0.27153 elapsed seconds
Timing for main: time 2019-11-26_19:43:00 on domain   1:    0.27120 elapsed seconds
Timing for main: time 2019-11-26_19:43:15 on domain   1:    0.27177 elapsed seconds
Timing for main: time 2019-11-26_19:43:30 on domain   1:    0.27017 elapsed seconds
Timing for main: time 2019-11-26_19:43:45 on domain   1:    0.26963 elapsed seconds
Timing for main: time 2019-11-26_19:44:00 on domain   1:    0.26771 elapsed seconds
Timing for main: time 2019-11-26_19:44:15 on domain   1:    0.27134 elapsed seconds
Timing for main: time 2019-11-26_19:44:30 on domain   1:    0.27136 elapsed seconds
Timing for main: time 2019-11-26_19:44:45 on domain   1:    0.26891 elapsed seconds
Timing for main: time 2019-11-26_19:45:00 on domain   1:    0.26978 elapsed seconds
Timing for main: time 2019-11-26_19:45:15 on domain   1:    0.26971 elapsed seconds
Timing for main: time 2019-11-26_19:45:30 on domain   1:    0.26811 elapsed seconds
Timing for main: time 2019-11-26_19:45:45 on domain   1:    0.27110 elapsed seconds
Timing for main: time 2019-11-26_19:46:00 on domain   1:    0.27138 elapsed seconds
Timing for main: time 2019-11-26_19:46:15 on domain   1:    0.26912 elapsed seconds
Timing for main: time 2019-11-26_19:46:30 on domain   1:    0.27006 elapsed seconds
Timing for main: time 2019-11-26_19:46:45 on domain   1:    0.27104 elapsed seconds
Timing for main: time 2019-11-26_19:47:00 on domain   1:    0.26906 elapsed seconds
Timing for main: time 2019-11-26_19:47:15 on domain   1:    0.27193 elapsed seconds
Timing for main: time 2019-11-26_19:47:30 on domain   1:    0.27045 elapsed seconds
Timing for main: time 2019-11-26_19:47:45 on domain   1:    0.26847 elapsed seconds
Timing for main: time 2019-11-26_19:48:00 on domain   1:    0.27164 elapsed seconds
Timing for main: time 2019-11-26_19:48:15 on domain   1:    0.26823 elapsed seconds
Timing for main: time 2019-11-26_19:48:30 on domain   1:    0.26985 elapsed seconds
Timing for main: time 2019-11-26_19:48:45 on domain   1:    0.27051 elapsed seconds
Timing for main: time 2019-11-26_19:49:00 on domain   1:    0.26897 elapsed seconds
Timing for main: time 2019-11-26_19:49:15 on domain   1:    0.27030 elapsed seconds
Timing for main: time 2019-11-26_19:49:30 on domain   1:    0.26801 elapsed seconds
Timing for main: time 2019-11-26_19:49:45 on domain   1:    0.27319 elapsed seconds
Timing for main: time 2019-11-26_19:50:00 on domain   1:    0.26993 elapsed seconds
Timing for main: time 2019-11-26_19:50:15 on domain   1:    2.16130 elapsed seconds
Timing for main: time 2019-11-26_19:50:30 on domain   1:    0.26428 elapsed seconds
Timing for main: time 2019-11-26_19:50:45 on domain   1:    0.27266 elapsed seconds
Timing for main: time 2019-11-26_19:51:00 on domain   1:    0.27128 elapsed seconds
Timing for main: time 2019-11-26_19:51:15 on domain   1:    0.27186 elapsed seconds
Timing for main: time 2019-11-26_19:51:30 on domain   1:    0.26874 elapsed seconds
Timing for main: time 2019-11-26_19:51:45 on domain   1:    0.27158 elapsed seconds
Timing for main: time 2019-11-26_19:52:00 on domain   1:    0.27323 elapsed seconds
Timing for main: time 2019-11-26_19:52:15 on domain   1:    0.26841 elapsed seconds
Timing for main: time 2019-11-26_19:52:30 on domain   1:    0.27139 elapsed seconds
Timing for main: time 2019-11-26_19:52:45 on domain   1:    0.27060 elapsed seconds
Timing for main: time 2019-11-26_19:53:00 on domain   1:    0.26828 elapsed seconds
Timing for main: time 2019-11-26_19:53:15 on domain   1:    0.27165 elapsed seconds
Timing for main: time 2019-11-26_19:53:30 on domain   1:    0.27242 elapsed seconds
Timing for main: time 2019-11-26_19:53:45 on domain   1:    0.26911 elapsed seconds
Timing for main: time 2019-11-26_19:54:00 on domain   1:    0.26913 elapsed seconds
Timing for main: time 2019-11-26_19:54:15 on domain   1:    0.27158 elapsed seconds
Timing for main: time 2019-11-26_19:54:30 on domain   1:    0.26982 elapsed seconds
Timing for main: time 2019-11-26_19:54:45 on domain   1:    0.27092 elapsed seconds
Timing for main: time 2019-11-26_19:55:00 on domain   1:    0.26916 elapsed seconds
Timing for main: time 2019-11-26_19:55:15 on domain   1:    0.27047 elapsed seconds
Timing for main: time 2019-11-26_19:55:30 on domain   1:    0.27177 elapsed seconds
Timing for main: time 2019-11-26_19:55:45 on domain   1:    0.27171 elapsed seconds
Timing for main: time 2019-11-26_19:56:00 on domain   1:    0.26793 elapsed seconds
Timing for main: time 2019-11-26_19:56:15 on domain   1:    0.27098 elapsed seconds
Timing for main: time 2019-11-26_19:56:30 on domain   1:    0.26965 elapsed seconds
Timing for main: time 2019-11-26_19:56:45 on domain   1:    0.27034 elapsed seconds
Timing for main: time 2019-11-26_19:57:00 on domain   1:    0.26791 elapsed seconds
Timing for main: time 2019-11-26_19:57:15 on domain   1:    0.27162 elapsed seconds
Timing for main: time 2019-11-26_19:57:30 on domain   1:    0.26851 elapsed seconds
Timing for main: time 2019-11-26_19:57:45 on domain   1:    0.27078 elapsed seconds
Timing for main: time 2019-11-26_19:58:00 on domain   1:    0.26709 elapsed seconds
Timing for main: time 2019-11-26_19:58:15 on domain   1:    0.27051 elapsed seconds
Timing for main: time 2019-11-26_19:58:30 on domain   1:    0.27173 elapsed seconds
Timing for main: time 2019-11-26_19:58:45 on domain   1:    0.27022 elapsed seconds
Timing for main: time 2019-11-26_19:59:00 on domain   1:    0.26862 elapsed seconds
Timing for main: time 2019-11-26_19:59:15 on domain   1:    0.26850 elapsed seconds
Timing for main: time 2019-11-26_19:59:30 on domain   1:    0.27169 elapsed seconds
Timing for main: time 2019-11-26_19:59:45 on domain   1:    0.27005 elapsed seconds
Timing for main: time 2019-11-26_20:00:00 on domain   1:    0.26716 elapsed seconds
 mediation_integrate.G        1249 DATASET=HISTORY
 mediation_integrate.G        1250  grid%id            1  grid%oid            2
Timing for Writing wrfout_d01_2019-11-26_20:00:00 for domain        1:    7.52705 elapsed seconds
Timing for main: time 2019-11-26_20:00:15 on domain   1:    9.68198 elapsed seconds
Timing for main: time 2019-11-26_20:00:30 on domain   1:    0.26475 elapsed seconds
Timing for main: time 2019-11-26_20:00:45 on domain   1:    0.27369 elapsed seconds
Timing for main: time 2019-11-26_20:01:00 on domain   1:    0.26898 elapsed seconds
Timing for main: time 2019-11-26_20:01:15 on domain   1:    0.26996 elapsed seconds
Timing for main: time 2019-11-26_20:01:30 on domain   1:    0.27130 elapsed seconds
Timing for main: time 2019-11-26_20:01:45 on domain   1:    0.27090 elapsed seconds
Timing for main: time 2019-11-26_20:02:00 on domain   1:    0.26846 elapsed seconds
Timing for main: time 2019-11-26_20:02:15 on domain   1:    0.27563 elapsed seconds
Timing for main: time 2019-11-26_20:02:30 on domain   1:    0.26661 elapsed seconds
Timing for main: time 2019-11-26_20:02:45 on domain   1:    0.27149 elapsed seconds
Timing for main: time 2019-11-26_20:03:00 on domain   1:    0.27031 elapsed seconds
Timing for main: time 2019-11-26_20:03:15 on domain   1:    0.27396 elapsed seconds
Timing for main: time 2019-11-26_20:03:30 on domain   1:    0.27033 elapsed seconds
Timing for main: time 2019-11-26_20:03:45 on domain   1:    0.27334 elapsed seconds
Timing for main: time 2019-11-26_20:04:00 on domain   1:    0.27235 elapsed seconds
Timing for main: time 2019-11-26_20:04:15 on domain   1:    0.26781 elapsed seconds
Timing for main: time 2019-11-26_20:04:30 on domain   1:    0.27225 elapsed seconds
Timing for main: time 2019-11-26_20:04:45 on domain   1:    0.26817 elapsed seconds
Timing for main: time 2019-11-26_20:05:00 on domain   1:    0.27135 elapsed seconds
Timing for main: time 2019-11-26_20:05:15 on domain   1:    0.27178 elapsed seconds
Timing for main: time 2019-11-26_20:05:30 on domain   1:    0.26995 elapsed seconds
Timing for main: time 2019-11-26_20:05:45 on domain   1:    0.27115 elapsed seconds
Timing for main: time 2019-11-26_20:06:00 on domain   1:    0.27156 elapsed seconds
Timing for main: time 2019-11-26_20:06:15 on domain   1:    1.36643 elapsed seconds
Timing for main: time 2019-11-26_20:06:30 on domain   1:    0.28410 elapsed seconds
Timing for main: time 2019-11-26_20:06:45 on domain   1:    0.27295 elapsed seconds
Timing for main: time 2019-11-26_20:07:00 on domain   1:    0.26999 elapsed seconds
Timing for main: time 2019-11-26_20:07:15 on domain   1:    0.27097 elapsed seconds
Timing for main: time 2019-11-26_20:07:30 on domain   1:    0.27093 elapsed seconds
Timing for main: time 2019-11-26_20:07:45 on domain   1:    1.58794 elapsed seconds
Timing for main: time 2019-11-26_20:08:00 on domain   1:    1.57804 elapsed seconds
Timing for main: time 2019-11-26_20:08:15 on domain   1:    0.27160 elapsed seconds
Timing for main: time 2019-11-26_20:08:30 on domain   1:    0.27324 elapsed seconds
Timing for main: time 2019-11-26_20:08:45 on domain   1:    0.27085 elapsed seconds
Timing for main: time 2019-11-26_20:09:00 on domain   1:    0.27297 elapsed seconds
Timing for main: time 2019-11-26_20:09:15 on domain   1:    0.27244 elapsed seconds
Timing for main: time 2019-11-26_20:09:30 on domain   1:    0.27194 elapsed seconds
Timing for main: time 2019-11-26_20:09:45 on domain   1:    0.27068 elapsed seconds
Timing for main: time 2019-11-26_20:10:00 on domain   1:    0.27250 elapsed seconds
Timing for main: time 2019-11-26_20:10:15 on domain   1:    2.17491 elapsed seconds
Timing for main: time 2019-11-26_20:10:30 on domain   1:    0.27161 elapsed seconds
Timing for main: time 2019-11-26_20:10:45 on domain   1:    0.26987 elapsed seconds
Timing for main: time 2019-11-26_20:11:00 on domain   1:    0.27130 elapsed seconds
Timing for main: time 2019-11-26_20:11:15 on domain   1:    0.26965 elapsed seconds
Timing for main: time 2019-11-26_20:11:30 on domain   1:    0.27142 elapsed seconds
Timing for main: time 2019-11-26_20:11:45 on domain   1:    0.26924 elapsed seconds
Timing for main: time 2019-11-26_20:12:00 on domain   1:    0.27251 elapsed seconds
Timing for main: time 2019-11-26_20:12:15 on domain   1:    0.26972 elapsed seconds
Timing for main: time 2019-11-26_20:12:30 on domain   1:    0.26940 elapsed seconds
Timing for main: time 2019-11-26_20:12:45 on domain   1:    0.27272 elapsed seconds
Timing for main: time 2019-11-26_20:13:00 on domain   1:    0.27089 elapsed seconds
Timing for main: time 2019-11-26_20:13:15 on domain   1:    0.27005 elapsed seconds
Timing for main: time 2019-11-26_20:13:30 on domain   1:    0.27228 elapsed seconds
Timing for main: time 2019-11-26_20:13:45 on domain   1:    0.27000 elapsed seconds
Timing for main: time 2019-11-26_20:14:00 on domain   1:    0.26829 elapsed seconds
Timing for main: time 2019-11-26_20:14:15 on domain   1:    0.27287 elapsed seconds
Timing for main: time 2019-11-26_20:14:30 on domain   1:    0.27119 elapsed seconds
Timing for main: time 2019-11-26_20:14:45 on domain   1:    0.27153 elapsed seconds
Timing for main: time 2019-11-26_20:15:00 on domain   1:    0.27099 elapsed seconds
Timing for main: time 2019-11-26_20:15:15 on domain   1:    0.27042 elapsed seconds
Timing for main: time 2019-11-26_20:15:30 on domain   1:    0.27044 elapsed seconds
Timing for main: time 2019-11-26_20:15:45 on domain   1:    0.27491 elapsed seconds
Timing for main: time 2019-11-26_20:16:00 on domain   1:    0.27161 elapsed seconds
Timing for main: time 2019-11-26_20:16:15 on domain   1:    0.27160 elapsed seconds
Timing for main: time 2019-11-26_20:16:30 on domain   1:    0.27328 elapsed seconds
Timing for main: time 2019-11-26_20:16:45 on domain   1:    0.27191 elapsed seconds
Timing for main: time 2019-11-26_20:17:00 on domain   1:    0.27029 elapsed seconds
Timing for main: time 2019-11-26_20:17:15 on domain   1:    0.27277 elapsed seconds
Timing for main: time 2019-11-26_20:17:30 on domain   1:    0.27210 elapsed seconds
Timing for main: time 2019-11-26_20:17:45 on domain   1:    0.27141 elapsed seconds
Timing for main: time 2019-11-26_20:18:00 on domain   1:    0.27435 elapsed seconds
Timing for main: time 2019-11-26_20:18:15 on domain   1:    0.27347 elapsed seconds
Timing for main: time 2019-11-26_20:18:30 on domain   1:    0.27059 elapsed seconds
Timing for main: time 2019-11-26_20:18:45 on domain   1:    0.27330 elapsed seconds
Timing for main: time 2019-11-26_20:19:00 on domain   1:    0.27201 elapsed seconds
Timing for main: time 2019-11-26_20:19:15 on domain   1:    0.27291 elapsed seconds
Timing for main: time 2019-11-26_20:19:30 on domain   1:    0.27253 elapsed seconds
Timing for main: time 2019-11-26_20:19:45 on domain   1:    0.27380 elapsed seconds
Timing for main: time 2019-11-26_20:20:00 on domain   1:    0.27078 elapsed seconds
Timing for main: time 2019-11-26_20:20:15 on domain   1:    2.16792 elapsed seconds
Timing for main: time 2019-11-26_20:20:30 on domain   1:    0.27458 elapsed seconds
Timing for main: time 2019-11-26_20:20:45 on domain   1:    0.27509 elapsed seconds
Timing for main: time 2019-11-26_20:21:00 on domain   1:    0.27230 elapsed seconds
Timing for main: time 2019-11-26_20:21:15 on domain   1:    0.27138 elapsed seconds
Timing for main: time 2019-11-26_20:21:30 on domain   1:    0.27241 elapsed seconds
Timing for main: time 2019-11-26_20:21:45 on domain   1:    0.27321 elapsed seconds
Timing for main: time 2019-11-26_20:22:00 on domain   1:    0.27382 elapsed seconds
Timing for main: time 2019-11-26_20:22:15 on domain   1:    0.27271 elapsed seconds
Timing for main: time 2019-11-26_20:22:30 on domain   1:    0.27272 elapsed seconds
Timing for main: time 2019-11-26_20:22:45 on domain   1:    0.27075 elapsed seconds
Timing for main: time 2019-11-26_20:23:00 on domain   1:    0.27321 elapsed seconds
Timing for main: time 2019-11-26_20:23:15 on domain   1:    0.26951 elapsed seconds
Timing for main: time 2019-11-26_20:23:30 on domain   1:    0.27448 elapsed seconds
Timing for main: time 2019-11-26_20:23:45 on domain   1:    0.27150 elapsed seconds
Timing for main: time 2019-11-26_20:24:00 on domain   1:    0.27202 elapsed seconds
Timing for main: time 2019-11-26_20:24:15 on domain   1:    0.27015 elapsed seconds
Timing for main: time 2019-11-26_20:24:30 on domain   1:    0.27447 elapsed seconds
Timing for main: time 2019-11-26_20:24:45 on domain   1:    0.27094 elapsed seconds
Timing for main: time 2019-11-26_20:25:00 on domain   1:    0.27033 elapsed seconds
Timing for main: time 2019-11-26_20:25:15 on domain   1:    0.27419 elapsed seconds
Timing for main: time 2019-11-26_20:25:30 on domain   1:    0.27297 elapsed seconds
Timing for main: time 2019-11-26_20:25:45 on domain   1:    0.27524 elapsed seconds
Timing for main: time 2019-11-26_20:26:00 on domain   1:    0.27348 elapsed seconds
Timing for main: time 2019-11-26_20:26:15 on domain   1:    0.27315 elapsed seconds
Timing for main: time 2019-11-26_20:26:30 on domain   1:    0.27115 elapsed seconds
Timing for main: time 2019-11-26_20:26:45 on domain   1:    0.27455 elapsed seconds
Timing for main: time 2019-11-26_20:27:00 on domain   1:    0.27345 elapsed seconds
Timing for main: time 2019-11-26_20:27:15 on domain   1:    0.26954 elapsed seconds
Timing for main: time 2019-11-26_20:27:30 on domain   1:    0.27612 elapsed seconds
Timing for main: time 2019-11-26_20:27:45 on domain   1:    0.27274 elapsed seconds
Timing for main: time 2019-11-26_20:28:00 on domain   1:    0.27194 elapsed seconds
Timing for main: time 2019-11-26_20:28:15 on domain   1:    0.27191 elapsed seconds
Timing for main: time 2019-11-26_20:28:30 on domain   1:    0.27372 elapsed seconds
Timing for main: time 2019-11-26_20:28:45 on domain   1:    0.27201 elapsed seconds
Timing for main: time 2019-11-26_20:29:00 on domain   1:    0.27235 elapsed seconds
Timing for main: time 2019-11-26_20:29:15 on domain   1:    0.27514 elapsed seconds
Timing for main: time 2019-11-26_20:29:30 on domain   1:    0.27050 elapsed seconds
Timing for main: time 2019-11-26_20:29:45 on domain   1:    0.27473 elapsed seconds
Timing for main: time 2019-11-26_20:30:00 on domain   1:    0.27395 elapsed seconds
Timing for main: time 2019-11-26_20:30:15 on domain   1:    2.16983 elapsed seconds
Timing for main: time 2019-11-26_20:30:30 on domain   1:    0.27728 elapsed seconds
Timing for main: time 2019-11-26_20:30:45 on domain   1:    0.27458 elapsed seconds
Timing for main: time 2019-11-26_20:31:00 on domain   1:    0.27560 elapsed seconds
Timing for main: time 2019-11-26_20:31:15 on domain   1:    0.27229 elapsed seconds
Timing for main: time 2019-11-26_20:31:30 on domain   1:    0.27004 elapsed seconds
Timing for main: time 2019-11-26_20:31:45 on domain   1:    0.27361 elapsed seconds
Timing for main: time 2019-11-26_20:32:00 on domain   1:    0.27186 elapsed seconds
Timing for main: time 2019-11-26_20:32:15 on domain   1:    0.27268 elapsed seconds
Timing for main: time 2019-11-26_20:32:30 on domain   1:    0.27450 elapsed seconds
Timing for main: time 2019-11-26_20:32:45 on domain   1:    0.27260 elapsed seconds
Timing for main: time 2019-11-26_20:33:00 on domain   1:    0.27323 elapsed seconds
Timing for main: time 2019-11-26_20:33:15 on domain   1:    0.27325 elapsed seconds
Timing for main: time 2019-11-26_20:33:30 on domain   1:    0.27424 elapsed seconds
Timing for main: time 2019-11-26_20:33:45 on domain   1:    0.27242 elapsed seconds
Timing for main: time 2019-11-26_20:34:00 on domain   1:    0.27364 elapsed seconds
Timing for main: time 2019-11-26_20:34:15 on domain   1:    0.27243 elapsed seconds
Timing for main: time 2019-11-26_20:34:30 on domain   1:    0.27471 elapsed seconds
Timing for main: time 2019-11-26_20:34:45 on domain   1:    0.27198 elapsed seconds
Timing for main: time 2019-11-26_20:35:00 on domain   1:    0.27366 elapsed seconds
Timing for main: time 2019-11-26_20:35:15 on domain   1:    0.27185 elapsed seconds
Timing for main: time 2019-11-26_20:35:30 on domain   1:    0.27387 elapsed seconds
Timing for main: time 2019-11-26_20:35:45 on domain   1:    0.27307 elapsed seconds
Timing for main: time 2019-11-26_20:36:00 on domain   1:    0.27356 elapsed seconds
Timing for main: time 2019-11-26_20:36:15 on domain   1:    0.27127 elapsed seconds
Timing for main: time 2019-11-26_20:36:30 on domain   1:    0.27285 elapsed seconds
Timing for main: time 2019-11-26_20:36:45 on domain   1:    0.27360 elapsed seconds
Timing for main: time 2019-11-26_20:37:00 on domain   1:    0.27428 elapsed seconds
Timing for main: time 2019-11-26_20:37:15 on domain   1:    0.27012 elapsed seconds
Timing for main: time 2019-11-26_20:37:30 on domain   1:    0.27161 elapsed seconds
Timing for main: time 2019-11-26_20:37:45 on domain   1:    0.27405 elapsed seconds
Timing for main: time 2019-11-26_20:38:00 on domain   1:    0.27232 elapsed seconds
Timing for main: time 2019-11-26_20:38:15 on domain   1:    0.27347 elapsed seconds
Timing for main: time 2019-11-26_20:38:30 on domain   1:    0.27203 elapsed seconds
Timing for main: time 2019-11-26_20:38:45 on domain   1:    0.27328 elapsed seconds
Timing for main: time 2019-11-26_20:39:00 on domain   1:    0.27088 elapsed seconds
Timing for main: time 2019-11-26_20:39:15 on domain   1:    0.26991 elapsed seconds
Timing for main: time 2019-11-26_20:39:30 on domain   1:    0.27221 elapsed seconds
Timing for main: time 2019-11-26_20:39:45 on domain   1:    0.27395 elapsed seconds
Timing for main: time 2019-11-26_20:40:00 on domain   1:    0.27165 elapsed seconds
Timing for main: time 2019-11-26_20:40:15 on domain   1:    2.17846 elapsed seconds
Timing for main: time 2019-11-26_20:40:30 on domain   1:    0.26943 elapsed seconds
Timing for main: time 2019-11-26_20:40:45 on domain   1:    0.27592 elapsed seconds
Timing for main: time 2019-11-26_20:41:00 on domain   1:    0.26824 elapsed seconds
Timing for main: time 2019-11-26_20:41:15 on domain   1:    0.27618 elapsed seconds
Timing for main: time 2019-11-26_20:41:30 on domain   1:    0.27037 elapsed seconds
Timing for main: time 2019-11-26_20:41:45 on domain   1:    0.27582 elapsed seconds
Timing for main: time 2019-11-26_20:42:00 on domain   1:    0.27133 elapsed seconds
Timing for main: time 2019-11-26_20:42:15 on domain   1:    0.27297 elapsed seconds
Timing for main: time 2019-11-26_20:42:30 on domain   1:    0.27650 elapsed seconds
Timing for main: time 2019-11-26_20:42:45 on domain   1:    0.26944 elapsed seconds
Timing for main: time 2019-11-26_20:43:00 on domain   1:    0.27425 elapsed seconds
Timing for main: time 2019-11-26_20:43:15 on domain   1:    0.27229 elapsed seconds
Timing for main: time 2019-11-26_20:43:30 on domain   1:    0.27499 elapsed seconds
Timing for main: time 2019-11-26_20:43:45 on domain   1:    0.27177 elapsed seconds
Timing for main: time 2019-11-26_20:44:00 on domain   1:    0.27395 elapsed seconds
Timing for main: time 2019-11-26_20:44:15 on domain   1:    0.27151 elapsed seconds
Timing for main: time 2019-11-26_20:44:30 on domain   1:    0.27483 elapsed seconds
Timing for main: time 2019-11-26_20:44:45 on domain   1:    0.27109 elapsed seconds
Timing for main: time 2019-11-26_20:45:00 on domain   1:    0.27383 elapsed seconds
Timing for main: time 2019-11-26_20:45:15 on domain   1:    0.27187 elapsed seconds
Timing for main: time 2019-11-26_20:45:30 on domain   1:    0.27296 elapsed seconds
Timing for main: time 2019-11-26_20:45:45 on domain   1:    0.27439 elapsed seconds
Timing for main: time 2019-11-26_20:46:00 on domain   1:    0.27120 elapsed seconds
Timing for main: time 2019-11-26_20:46:15 on domain   1:    0.27477 elapsed seconds
Timing for main: time 2019-11-26_20:46:30 on domain   1:    0.27082 elapsed seconds
Timing for main: time 2019-11-26_20:46:45 on domain   1:    0.27415 elapsed seconds
Timing for main: time 2019-11-26_20:47:00 on domain   1:    0.27069 elapsed seconds
Timing for main: time 2019-11-26_20:47:15 on domain   1:    0.27480 elapsed seconds
Timing for main: time 2019-11-26_20:47:30 on domain   1:    0.27120 elapsed seconds
Timing for main: time 2019-11-26_20:47:45 on domain   1:    0.29738 elapsed seconds
Timing for main: time 2019-11-26_20:48:00 on domain   1:    0.27188 elapsed seconds
Timing for main: time 2019-11-26_20:48:15 on domain   1:    0.26914 elapsed seconds
Timing for main: time 2019-11-26_20:48:30 on domain   1:    0.27191 elapsed seconds
Timing for main: time 2019-11-26_20:48:45 on domain   1:    0.27446 elapsed seconds
Timing for main: time 2019-11-26_20:49:00 on domain   1:    0.27150 elapsed seconds
Timing for main: time 2019-11-26_20:49:15 on domain   1:    0.27208 elapsed seconds
Timing for main: time 2019-11-26_20:49:30 on domain   1:    0.27387 elapsed seconds
Timing for main: time 2019-11-26_20:49:45 on domain   1:    0.27257 elapsed seconds
Timing for main: time 2019-11-26_20:50:00 on domain   1:    0.27158 elapsed seconds
Timing for main: time 2019-11-26_20:50:15 on domain   1:    2.19070 elapsed seconds
Timing for main: time 2019-11-26_20:50:30 on domain   1:    0.27095 elapsed seconds
Timing for main: time 2019-11-26_20:50:45 on domain   1:    0.27593 elapsed seconds
Timing for main: time 2019-11-26_20:51:00 on domain   1:    0.26885 elapsed seconds
Timing for main: time 2019-11-26_20:51:15 on domain   1:    0.27440 elapsed seconds
Timing for main: time 2019-11-26_20:51:30 on domain   1:    0.27169 elapsed seconds
Timing for main: time 2019-11-26_20:51:45 on domain   1:    0.27217 elapsed seconds
Timing for main: time 2019-11-26_20:52:00 on domain   1:    0.27206 elapsed seconds
Timing for main: time 2019-11-26_20:52:15 on domain   1:    0.67353 elapsed seconds
Timing for main: time 2019-11-26_20:52:30 on domain   1:    0.71454 elapsed seconds
Timing for main: time 2019-11-26_20:52:45 on domain   1:    0.26895 elapsed seconds
Timing for main: time 2019-11-26_20:53:00 on domain   1:    0.27068 elapsed seconds
Timing for main: time 2019-11-26_20:53:15 on domain   1:    0.27235 elapsed seconds
Timing for main: time 2019-11-26_20:53:30 on domain   1:    0.27319 elapsed seconds
Timing for main: time 2019-11-26_20:53:45 on domain   1:    0.27296 elapsed seconds
Timing for main: time 2019-11-26_20:54:00 on domain   1:    0.26986 elapsed seconds
Timing for main: time 2019-11-26_20:54:15 on domain   1:    0.27100 elapsed seconds
Timing for main: time 2019-11-26_20:54:30 on domain   1:    0.27193 elapsed seconds
Timing for main: time 2019-11-26_20:54:45 on domain   1:    0.27226 elapsed seconds
Timing for main: time 2019-11-26_20:55:00 on domain   1:    0.27114 elapsed seconds
Timing for main: time 2019-11-26_20:55:15 on domain   1:    0.27388 elapsed seconds
Timing for main: time 2019-11-26_20:55:30 on domain   1:    0.27287 elapsed seconds
Timing for main: time 2019-11-26_20:55:45 on domain   1:    0.27213 elapsed seconds
Timing for main: time 2019-11-26_20:56:00 on domain   1:    0.27119 elapsed seconds
Timing for main: time 2019-11-26_20:56:15 on domain   1:    0.27200 elapsed seconds
Timing for main: time 2019-11-26_20:56:30 on domain   1:    0.27332 elapsed seconds
Timing for main: time 2019-11-26_20:56:45 on domain   1:    0.27581 elapsed seconds
Timing for main: time 2019-11-26_20:57:00 on domain   1:    0.26903 elapsed seconds
Timing for main: time 2019-11-26_20:57:15 on domain   1:    0.27116 elapsed seconds
Timing for main: time 2019-11-26_20:57:30 on domain   1:    0.43964 elapsed seconds
Timing for main: time 2019-11-26_20:57:45 on domain   1:    0.61395 elapsed seconds
Timing for main: time 2019-11-26_20:58:00 on domain   1:    0.27254 elapsed seconds
Timing for main: time 2019-11-26_20:58:15 on domain   1:    0.27473 elapsed seconds
Timing for main: time 2019-11-26_20:58:30 on domain   1:    0.27283 elapsed seconds
Timing for main: time 2019-11-26_20:58:45 on domain   1:    0.27298 elapsed seconds
Timing for main: time 2019-11-26_20:59:00 on domain   1:    0.27483 elapsed seconds
Timing for main: time 2019-11-26_20:59:15 on domain   1:    0.27548 elapsed seconds
Timing for main: time 2019-11-26_20:59:30 on domain   1:    0.27224 elapsed seconds
Timing for main: time 2019-11-26_20:59:45 on domain   1:    0.27504 elapsed seconds
Timing for main: time 2019-11-26_21:00:00 on domain   1:    0.27131 elapsed seconds
 mediation_integrate.G        1249 DATASET=HISTORY
 mediation_integrate.G        1250  grid%id            1  grid%oid            2
Timing for Writing wrfout_d01_2019-11-26_21:00:00 for domain        1:    8.47431 elapsed seconds
 Input data is acceptable to use: wrfbdy_d01
Timing for processing lateral boundary for domain        1:    4.13685 elapsed seconds
Timing for main: time 2019-11-26_21:00:15 on domain   1:   14.76133 elapsed seconds
Timing for main: time 2019-11-26_21:00:30 on domain   1:    0.27281 elapsed seconds
Timing for main: time 2019-11-26_21:00:45 on domain   1:    0.27580 elapsed seconds
Timing for main: time 2019-11-26_21:01:00 on domain   1:    0.27267 elapsed seconds
Timing for main: time 2019-11-26_21:01:15 on domain   1:    0.27335 elapsed seconds
Timing for main: time 2019-11-26_21:01:30 on domain   1:    0.27219 elapsed seconds
Timing for main: time 2019-11-26_21:01:45 on domain   1:    0.27429 elapsed seconds
Timing for main: time 2019-11-26_21:02:00 on domain   1:    0.27579 elapsed seconds
Timing for main: time 2019-11-26_21:02:15 on domain   1:    0.27475 elapsed seconds
Timing for main: time 2019-11-26_21:02:30 on domain   1:    0.27149 elapsed seconds
Timing for main: time 2019-11-26_21:02:45 on domain   1:    0.27460 elapsed seconds
Timing for main: time 2019-11-26_21:03:00 on domain   1:    0.27277 elapsed seconds
Timing for main: time 2019-11-26_21:03:15 on domain   1:    0.27494 elapsed seconds
Timing for main: time 2019-11-26_21:03:30 on domain   1:    0.27200 elapsed seconds
Timing for main: time 2019-11-26_21:03:45 on domain   1:    0.27595 elapsed seconds
Timing for main: time 2019-11-26_21:04:00 on domain   1:    0.27093 elapsed seconds
Timing for main: time 2019-11-26_21:04:15 on domain   1:    0.27509 elapsed seconds
Timing for main: time 2019-11-26_21:04:30 on domain   1:    0.27455 elapsed seconds
Timing for main: time 2019-11-26_21:04:45 on domain   1:    0.27365 elapsed seconds
Timing for main: time 2019-11-26_21:05:00 on domain   1:    0.27325 elapsed seconds
Timing for main: time 2019-11-26_21:05:15 on domain   1:    0.27501 elapsed seconds
Timing for main: time 2019-11-26_21:05:30 on domain   1:    0.27151 elapsed seconds
Timing for main: time 2019-11-26_21:05:45 on domain   1:    0.27583 elapsed seconds
Timing for main: time 2019-11-26_21:06:00 on domain   1:    0.27237 elapsed seconds
Timing for main: time 2019-11-26_21:06:15 on domain   1:    0.27462 elapsed seconds
Timing for main: time 2019-11-26_21:06:30 on domain   1:    0.27371 elapsed seconds
Timing for main: time 2019-11-26_21:06:45 on domain   1:    0.27472 elapsed seconds
Timing for main: time 2019-11-26_21:07:00 on domain   1:    0.27211 elapsed seconds
Timing for main: time 2019-11-26_21:07:15 on domain   1:    0.27572 elapsed seconds
Timing for main: time 2019-11-26_21:07:30 on domain   1:    0.27280 elapsed seconds
Timing for main: time 2019-11-26_21:07:45 on domain   1:    0.27461 elapsed seconds
Timing for main: time 2019-11-26_21:08:00 on domain   1:    0.27283 elapsed seconds
Timing for main: time 2019-11-26_21:08:15 on domain   1:    0.27605 elapsed seconds
Timing for main: time 2019-11-26_21:08:30 on domain   1:    0.27321 elapsed seconds
Timing for main: time 2019-11-26_21:08:45 on domain   1:    0.27389 elapsed seconds
Timing for main: time 2019-11-26_21:09:00 on domain   1:    0.27216 elapsed seconds
Timing for main: time 2019-11-26_21:09:15 on domain   1:    0.27443 elapsed seconds
Timing for main: time 2019-11-26_21:09:30 on domain   1:    0.27341 elapsed seconds
Timing for main: time 2019-11-26_21:09:45 on domain   1:    0.27575 elapsed seconds
Timing for main: time 2019-11-26_21:10:00 on domain   1:    0.27286 elapsed seconds
Timing for main: time 2019-11-26_21:10:15 on domain   1:    2.16990 elapsed seconds
Timing for main: time 2019-11-26_21:10:30 on domain   1:    0.26687 elapsed seconds
Timing for main: time 2019-11-26_21:10:45 on domain   1:    0.27511 elapsed seconds
Timing for main: time 2019-11-26_21:11:00 on domain   1:    0.27371 elapsed seconds
Timing for main: time 2019-11-26_21:11:15 on domain   1:    0.27184 elapsed seconds
Timing for main: time 2019-11-26_21:11:30 on domain   1:    0.27250 elapsed seconds
Timing for main: time 2019-11-26_21:11:45 on domain   1:    0.27404 elapsed seconds
Timing for main: time 2019-11-26_21:12:00 on domain   1:    0.27228 elapsed seconds
Timing for main: time 2019-11-26_21:12:15 on domain   1:    0.27243 elapsed seconds
Timing for main: time 2019-11-26_21:12:30 on domain   1:    0.27172 elapsed seconds
Timing for main: time 2019-11-26_21:12:45 on domain   1:    0.27346 elapsed seconds
Timing for main: time 2019-11-26_21:13:00 on domain   1:    0.27339 elapsed seconds
Timing for main: time 2019-11-26_21:13:15 on domain   1:    0.27160 elapsed seconds
Timing for main: time 2019-11-26_21:13:30 on domain   1:    0.27245 elapsed seconds
Timing for main: time 2019-11-26_21:13:45 on domain   1:    0.27453 elapsed seconds
Timing for main: time 2019-11-26_21:14:00 on domain   1:    0.27029 elapsed seconds
Timing for main: time 2019-11-26_21:14:15 on domain   1:    0.27565 elapsed seconds
Timing for main: time 2019-11-26_21:14:30 on domain   1:    0.27370 elapsed seconds
Timing for main: time 2019-11-26_21:14:45 on domain   1:    0.27305 elapsed seconds
Timing for main: time 2019-11-26_21:15:00 on domain   1:    0.27335 elapsed seconds
Timing for main: time 2019-11-26_21:15:15 on domain   1:    0.27185 elapsed seconds
Timing for main: time 2019-11-26_21:15:30 on domain   1:    0.27288 elapsed seconds
Timing for main: time 2019-11-26_21:15:45 on domain   1:    0.27425 elapsed seconds
Timing for main: time 2019-11-26_21:16:00 on domain   1:    0.27212 elapsed seconds
Timing for main: time 2019-11-26_21:16:15 on domain   1:    0.27311 elapsed seconds
Timing for main: time 2019-11-26_21:16:30 on domain   1:    0.27287 elapsed seconds
Timing for main: time 2019-11-26_21:16:45 on domain   1:    0.27260 elapsed seconds
Timing for main: time 2019-11-26_21:17:00 on domain   1:    0.27276 elapsed seconds
Timing for main: time 2019-11-26_21:17:15 on domain   1:    0.27548 elapsed seconds
Timing for main: time 2019-11-26_21:17:30 on domain   1:    0.27353 elapsed seconds
Timing for main: time 2019-11-26_21:17:45 on domain   1:    0.27157 elapsed seconds
Timing for main: time 2019-11-26_21:18:00 on domain   1:    0.27381 elapsed seconds
Timing for main: time 2019-11-26_21:18:15 on domain   1:    0.27460 elapsed seconds
Timing for main: time 2019-11-26_21:18:30 on domain   1:    0.27388 elapsed seconds
Timing for main: time 2019-11-26_21:18:45 on domain   1:    0.27127 elapsed seconds
Timing for main: time 2019-11-26_21:19:00 on domain   1:    0.27350 elapsed seconds
Timing for main: time 2019-11-26_21:19:15 on domain   1:    0.27329 elapsed seconds
Timing for main: time 2019-11-26_21:19:30 on domain   1:    0.27279 elapsed seconds
Timing for main: time 2019-11-26_21:19:45 on domain   1:    0.27469 elapsed seconds
Timing for main: time 2019-11-26_21:20:00 on domain   1:    0.27656 elapsed seconds
Timing for main: time 2019-11-26_21:20:15 on domain   1:    2.17542 elapsed seconds
Timing for main: time 2019-11-26_21:20:30 on domain   1:    0.27291 elapsed seconds
Timing for main: time 2019-11-26_21:20:45 on domain   1:    0.27290 elapsed seconds
Timing for main: time 2019-11-26_21:21:00 on domain   1:    0.27419 elapsed seconds
Timing for main: time 2019-11-26_21:21:15 on domain   1:    0.27567 elapsed seconds
Timing for main: time 2019-11-26_21:21:30 on domain   1:    0.27471 elapsed seconds
Timing for main: time 2019-11-26_21:21:45 on domain   1:    0.27308 elapsed seconds
Timing for main: time 2019-11-26_21:22:00 on domain   1:    0.27643 elapsed seconds
Timing for main: time 2019-11-26_21:22:15 on domain   1:    0.27493 elapsed seconds
Timing for main: time 2019-11-26_21:22:30 on domain   1:    0.27427 elapsed seconds
Timing for main: time 2019-11-26_21:22:45 on domain   1:    0.27542 elapsed seconds
Timing for main: time 2019-11-26_21:23:00 on domain   1:    0.27469 elapsed seconds
Timing for main: time 2019-11-26_21:23:15 on domain   1:    0.27468 elapsed seconds
Timing for main: time 2019-11-26_21:23:30 on domain   1:    0.27503 elapsed seconds
Timing for main: time 2019-11-26_21:23:45 on domain   1:    0.27420 elapsed seconds
Timing for main: time 2019-11-26_21:24:00 on domain   1:    0.27600 elapsed seconds
Timing for main: time 2019-11-26_21:24:15 on domain   1:    0.27592 elapsed seconds
Timing for main: time 2019-11-26_21:24:30 on domain   1:    0.27539 elapsed seconds
Timing for main: time 2019-11-26_21:24:45 on domain   1:    0.27551 elapsed seconds
Timing for main: time 2019-11-26_21:25:00 on domain   1:    0.27531 elapsed seconds
Timing for main: time 2019-11-26_21:25:15 on domain   1:    0.27556 elapsed seconds
Timing for main: time 2019-11-26_21:25:30 on domain   1:    0.27473 elapsed seconds
Timing for main: time 2019-11-26_21:25:45 on domain   1:    0.27661 elapsed seconds
Timing for main: time 2019-11-26_21:26:00 on domain   1:    0.27639 elapsed seconds
Timing for main: time 2019-11-26_21:26:15 on domain   1:    0.27477 elapsed seconds
Timing for main: time 2019-11-26_21:26:30 on domain   1:    0.27863 elapsed seconds
Timing for main: time 2019-11-26_21:26:45 on domain   1:    0.27538 elapsed seconds
Timing for main: time 2019-11-26_21:27:00 on domain   1:    0.27590 elapsed seconds
Timing for main: time 2019-11-26_21:27:15 on domain   1:    0.27411 elapsed seconds
Timing for main: time 2019-11-26_21:27:30 on domain   1:    0.57308 elapsed seconds
Timing for main: time 2019-11-26_21:27:45 on domain   1:    1.11474 elapsed seconds
Timing for main: time 2019-11-26_21:28:00 on domain   1:    0.26800 elapsed seconds
Timing for main: time 2019-11-26_21:28:15 on domain   1:    0.27320 elapsed seconds
Timing for main: time 2019-11-26_21:28:30 on domain   1:    0.27884 elapsed seconds
Timing for main: time 2019-11-26_21:28:45 on domain   1:    0.27301 elapsed seconds
Timing for main: time 2019-11-26_21:29:00 on domain   1:    0.27626 elapsed seconds
Timing for main: time 2019-11-26_21:29:15 on domain   1:    0.27557 elapsed seconds
Timing for main: time 2019-11-26_21:29:30 on domain   1:    0.27853 elapsed seconds
Timing for main: time 2019-11-26_21:29:45 on domain   1:    0.27285 elapsed seconds
Timing for main: time 2019-11-26_21:30:00 on domain   1:    0.27683 elapsed seconds
Timing for main: time 2019-11-26_21:30:15 on domain   1:    3.43650 elapsed seconds
Timing for main: time 2019-11-26_21:30:30 on domain   1:    1.69142 elapsed seconds
Timing for main: time 2019-11-26_21:30:45 on domain   1:    0.27391 elapsed seconds
Timing for main: time 2019-11-26_21:31:00 on domain   1:    0.27279 elapsed seconds
Timing for main: time 2019-11-26_21:31:15 on domain   1:    0.27226 elapsed seconds
Timing for main: time 2019-11-26_21:31:30 on domain   1:    0.27767 elapsed seconds
Timing for main: time 2019-11-26_21:31:45 on domain   1:    0.27716 elapsed seconds
Timing for main: time 2019-11-26_21:32:00 on domain   1:    0.27521 elapsed seconds
Timing for main: time 2019-11-26_21:32:15 on domain   1:    0.27430 elapsed seconds
Timing for main: time 2019-11-26_21:32:30 on domain   1:    0.27575 elapsed seconds
Timing for main: time 2019-11-26_21:32:45 on domain   1:    0.27645 elapsed seconds
Timing for main: time 2019-11-26_21:33:00 on domain   1:    0.27539 elapsed seconds
Timing for main: time 2019-11-26_21:33:15 on domain   1:    0.27579 elapsed seconds
Timing for main: time 2019-11-26_21:33:30 on domain   1:    0.27347 elapsed seconds
Timing for main: time 2019-11-26_21:33:45 on domain   1:    0.27742 elapsed seconds
Timing for main: time 2019-11-26_21:34:00 on domain   1:    0.27373 elapsed seconds
Timing for main: time 2019-11-26_21:34:15 on domain   1:    0.27628 elapsed seconds
Timing for main: time 2019-11-26_21:34:30 on domain   1:    0.27634 elapsed seconds
Timing for main: time 2019-11-26_21:34:45 on domain   1:    0.27514 elapsed seconds
Timing for main: time 2019-11-26_21:35:00 on domain   1:    0.27468 elapsed seconds
Timing for main: time 2019-11-26_21:35:15 on domain   1:    0.27441 elapsed seconds
Timing for main: time 2019-11-26_21:35:30 on domain   1:    0.27918 elapsed seconds
Timing for main: time 2019-11-26_21:35:45 on domain   1:    0.27554 elapsed seconds
Timing for main: time 2019-11-26_21:36:00 on domain   1:    0.27669 elapsed seconds
Timing for main: time 2019-11-26_21:36:15 on domain   1:    0.27341 elapsed seconds
Timing for main: time 2019-11-26_21:36:30 on domain   1:    0.27592 elapsed seconds
Timing for main: time 2019-11-26_21:36:45 on domain   1:    0.27441 elapsed seconds
Timing for main: time 2019-11-26_21:37:00 on domain   1:    0.27798 elapsed seconds
Timing for main: time 2019-11-26_21:37:15 on domain   1:    0.27393 elapsed seconds
Timing for main: time 2019-11-26_21:37:30 on domain   1:    0.27586 elapsed seconds
Timing for main: time 2019-11-26_21:37:45 on domain   1:    0.27673 elapsed seconds
Timing for main: time 2019-11-26_21:38:00 on domain   1:    0.27660 elapsed seconds
Timing for main: time 2019-11-26_21:38:15 on domain   1:    0.27395 elapsed seconds
Timing for main: time 2019-11-26_21:38:30 on domain   1:    0.27668 elapsed seconds
Timing for main: time 2019-11-26_21:38:45 on domain   1:    0.27722 elapsed seconds
Timing for main: time 2019-11-26_21:39:00 on domain   1:    0.27540 elapsed seconds
Timing for main: time 2019-11-26_21:39:15 on domain   1:    0.27413 elapsed seconds
Timing for main: time 2019-11-26_21:39:30 on domain   1:    0.28027 elapsed seconds
Timing for main: time 2019-11-26_21:39:45 on domain   1:    0.27514 elapsed seconds
Timing for main: time 2019-11-26_21:40:00 on domain   1:    0.27755 elapsed seconds
Timing for main: time 2019-11-26_21:40:15 on domain   1:    2.16860 elapsed seconds
Timing for main: time 2019-11-26_21:40:30 on domain   1:    0.27760 elapsed seconds
Timing for main: time 2019-11-26_21:40:45 on domain   1:    0.27824 elapsed seconds
Timing for main: time 2019-11-26_21:41:00 on domain   1:    0.27506 elapsed seconds
Timing for main: time 2019-11-26_21:41:15 on domain   1:    0.27964 elapsed seconds
Timing for main: time 2019-11-26_21:41:30 on domain   1:    0.27859 elapsed seconds
Timing for main: time 2019-11-26_21:41:45 on domain   1:    0.27583 elapsed seconds
Timing for main: time 2019-11-26_21:42:00 on domain   1:    0.27727 elapsed seconds
Timing for main: time 2019-11-26_21:42:15 on domain   1:    0.27819 elapsed seconds
Timing for main: time 2019-11-26_21:42:30 on domain   1:    0.27750 elapsed seconds
Timing for main: time 2019-11-26_21:42:45 on domain   1:    0.27729 elapsed seconds
Timing for main: time 2019-11-26_21:43:00 on domain   1:    0.27657 elapsed seconds
Timing for main: time 2019-11-26_21:43:15 on domain   1:    0.27696 elapsed seconds
Timing for main: time 2019-11-26_21:43:30 on domain   1:    0.27721 elapsed seconds
Timing for main: time 2019-11-26_21:43:45 on domain   1:    0.27653 elapsed seconds
[...]
Timing for main: time 2019-11-26_23:01:30 on domain   1:    0.28235 elapsed seconds
Timing for main: time 2019-11-26_23:01:45 on domain   1:    0.27406 elapsed seconds
Timing for main: time 2019-11-26_23:02:00 on domain   1:    0.28101 elapsed seconds
Timing for main: time 2019-11-26_23:02:15 on domain   1:    0.28092 elapsed seconds
Timing for main: time 2019-11-26_23:02:30 on domain   1:    0.27902 elapsed seconds
Timing for main: time 2019-11-26_23:02:45 on domain   1:    0.28034 elapsed seconds
Timing for main: time 2019-11-26_23:03:00 on domain   1:    0.27973 elapsed seconds
Timing for main: time 2019-11-26_23:03:15 on domain   1:    0.28035 elapsed seconds
Timing for main: time 2019-11-26_23:03:30 on domain   1:    0.27967 elapsed seconds
Timing for main: time 2019-11-26_23:03:45 on domain   1:    0.28145 elapsed seconds
Timing for main: time 2019-11-26_23:04:00 on domain   1:    0.27951 elapsed seconds
Timing for main: time 2019-11-26_23:04:15 on domain   1:    0.63573 elapsed seconds
Timing for main: time 2019-11-26_23:04:30 on domain   1:    0.75045 elapsed seconds
Timing for main: time 2019-11-26_23:04:45 on domain   1:    0.27322 elapsed seconds
Timing for main: time 2019-11-26_23:05:00 on domain   1:    0.28304 elapsed seconds
Timing for main: time 2019-11-26_23:05:15 on domain   1:    0.27848 elapsed seconds
Timing for main: time 2019-11-26_23:05:30 on domain   1:    0.28024 elapsed seconds
Timing for main: time 2019-11-26_23:05:45 on domain   1:    0.28019 elapsed seconds
Timing for main: time 2019-11-26_23:06:00 on domain   1:    0.28091 elapsed seconds
Timing for main: time 2019-11-26_23:06:15 on domain   1:    0.27876 elapsed seconds
Timing for main: time 2019-11-26_23:06:30 on domain   1:    0.28146 elapsed seconds
Timing for main: time 2019-11-26_23:06:45 on domain   1:    0.28004 elapsed seconds
Timing for main: time 2019-11-26_23:07:00 on domain   1:    0.27986 elapsed seconds
Timing for main: time 2019-11-26_23:07:15 on domain   1:    0.28040 elapsed seconds
Timing for main: time 2019-11-26_23:07:30 on domain   1:    0.28276 elapsed seconds
Timing for main: time 2019-11-26_23:07:45 on domain   1:    0.28455 elapsed seconds
Timing for main: time 2019-11-26_23:08:00 on domain   1:    0.27749 elapsed seconds
Timing for main: time 2019-11-26_23:08:15 on domain   1:    0.28162 elapsed seconds
Timing for main: time 2019-11-26_23:08:30 on domain   1:    0.27620 elapsed seconds
Timing for main: time 2019-11-26_23:08:45 on domain   1:    0.28240 elapsed seconds
Timing for main: time 2019-11-26_23:09:00 on domain   1:    0.27802 elapsed seconds
Timing for main: time 2019-11-26_23:09:15 on domain   1:    0.28109 elapsed seconds
Timing for main: time 2019-11-26_23:09:30 on domain   1:    0.28117 elapsed seconds
Timing for main: time 2019-11-26_23:09:45 on domain   1:    0.27860 elapsed seconds
Timing for main: time 2019-11-26_23:10:00 on domain   1:    0.28128 elapsed seconds
Timing for main: time 2019-11-26_23:10:15 on domain   1:    2.23343 elapsed seconds
Timing for main: time 2019-11-26_23:10:30 on domain   1:    0.28428 elapsed seconds
Timing for main: time 2019-11-26_23:10:45 on domain   1:    0.28207 elapsed seconds
Timing for main: time 2019-11-26_23:11:00 on domain   1:    0.27508 elapsed seconds
Timing for main: time 2019-11-26_23:11:15 on domain   1:    0.28088 elapsed seconds
Timing for main: time 2019-11-26_23:11:30 on domain   1:    0.27696 elapsed seconds
Timing for main: time 2019-11-26_23:11:45 on domain   1:    0.28168 elapsed seconds
Timing for main: time 2019-11-26_23:12:00 on domain   1:    0.27688 elapsed seconds
Timing for main: time 2019-11-26_23:12:15 on domain   1:    0.28082 elapsed seconds
Timing for main: time 2019-11-26_23:12:30 on domain   1:    0.28142 elapsed seconds
Timing for main: time 2019-11-26_23:12:45 on domain   1:    0.27836 elapsed seconds
Timing for main: time 2019-11-26_23:13:00 on domain   1:    0.28142 elapsed seconds
Timing for main: time 2019-11-26_23:13:15 on domain   1:    0.28039 elapsed seconds
Timing for main: time 2019-11-26_23:13:30 on domain   1:    0.27928 elapsed seconds
Timing for main: time 2019-11-26_23:13:45 on domain   1:    0.28150 elapsed seconds
Timing for main: time 2019-11-26_23:14:00 on domain   1:    0.27953 elapsed seconds
Timing for main: time 2019-11-26_23:14:15 on domain   1:    0.28081 elapsed seconds
Timing for main: time 2019-11-26_23:14:30 on domain   1:    0.34167 elapsed seconds
Timing for main: time 2019-11-26_23:14:45 on domain   1:    0.28277 elapsed seconds
Timing for main: time 2019-11-26_23:15:00 on domain   1:    0.27975 elapsed seconds
Timing for main: time 2019-11-26_23:15:15 on domain   1:    0.27864 elapsed seconds
Timing for main: time 2019-11-26_23:15:30 on domain   1:    0.28041 elapsed seconds
Timing for main: time 2019-11-26_23:15:45 on domain   1:    0.28094 elapsed seconds
Timing for main: time 2019-11-26_23:16:00 on domain   1:    0.28013 elapsed seconds
Timing for main: time 2019-11-26_23:16:15 on domain   1:    0.28103 elapsed seconds
Timing for main: time 2019-11-26_23:16:30 on domain   1:    0.28085 elapsed seconds
Timing for main: time 2019-11-26_23:16:45 on domain   1:    0.28066 elapsed seconds
Timing for main: time 2019-11-26_23:17:00 on domain   1:    0.27820 elapsed seconds
Timing for main: time 2019-11-26_23:17:15 on domain   1:    0.28123 elapsed seconds
Timing for main: time 2019-11-26_23:17:30 on domain   1:    0.28102 elapsed seconds
Timing for main: time 2019-11-26_23:17:45 on domain   1:    0.27983 elapsed seconds
Timing for main: time 2019-11-26_23:18:00 on domain   1:    0.28082 elapsed seconds
Timing for main: time 2019-11-26_23:18:15 on domain   1:    0.28036 elapsed seconds
Timing for main: time 2019-11-26_23:18:30 on domain   1:    0.28136 elapsed seconds
Timing for main: time 2019-11-26_23:18:45 on domain   1:    0.27991 elapsed seconds
Timing for main: time 2019-11-26_23:19:00 on domain   1:    0.28063 elapsed seconds
Timing for main: time 2019-11-26_23:19:15 on domain   1:    0.28187 elapsed seconds
Timing for main: time 2019-11-26_23:19:30 on domain   1:    0.28015 elapsed seconds
Timing for main: time 2019-11-26_23:19:45 on domain   1:    0.28115 elapsed seconds
Timing for main: time 2019-11-26_23:20:00 on domain   1:    0.28075 elapsed seconds
Timing for main: time 2019-11-26_23:20:15 on domain   1:    2.74895 elapsed seconds
Timing for main: time 2019-11-26_23:20:30 on domain   1:    0.27359 elapsed seconds
Timing for main: time 2019-11-26_23:20:45 on domain   1:    0.28114 elapsed seconds
Timing for main: time 2019-11-26_23:21:00 on domain   1:    0.27615 elapsed seconds
Timing for main: time 2019-11-26_23:21:15 on domain   1:    0.28141 elapsed seconds
Timing for main: time 2019-11-26_23:21:30 on domain   1:    0.27921 elapsed seconds
Timing for main: time 2019-11-26_23:21:45 on domain   1:    0.28055 elapsed seconds
Timing for main: time 2019-11-26_23:22:00 on domain   1:    0.27819 elapsed seconds
Timing for main: time 2019-11-26_23:22:15 on domain   1:    0.28204 elapsed seconds
Timing for main: time 2019-11-26_23:22:30 on domain   1:    0.28029 elapsed seconds
Timing for main: time 2019-11-26_23:22:45 on domain   1:    0.27962 elapsed seconds
Timing for main: time 2019-11-26_23:23:00 on domain   1:    0.27857 elapsed seconds
Timing for main: time 2019-11-26_23:23:15 on domain   1:    0.28103 elapsed seconds
Timing for main: time 2019-11-26_23:23:30 on domain   1:    0.27977 elapsed seconds
Timing for main: time 2019-11-26_23:23:45 on domain   1:    0.27859 elapsed seconds
Timing for main: time 2019-11-26_23:24:00 on domain   1:    0.28231 elapsed seconds
Timing for main: time 2019-11-26_23:24:15 on domain   1:    0.28033 elapsed seconds
Timing for main: time 2019-11-26_23:24:30 on domain   1:    0.28122 elapsed seconds
Timing for main: time 2019-11-26_23:24:45 on domain   1:    0.28008 elapsed seconds
Timing for main: time 2019-11-26_23:25:00 on domain   1:    0.28263 elapsed seconds
Timing for main: time 2019-11-26_23:25:15 on domain   1:    0.27898 elapsed seconds
Timing for main: time 2019-11-26_23:25:30 on domain   1:    0.27993 elapsed seconds
Timing for main: time 2019-11-26_23:25:45 on domain   1:    0.28145 elapsed seconds
Timing for main: time 2019-11-26_23:26:00 on domain   1:    0.28122 elapsed seconds
Timing for main: time 2019-11-26_23:26:15 on domain   1:    0.27920 elapsed seconds
Timing for main: time 2019-11-26_23:26:30 on domain   1:    0.28132 elapsed seconds
Timing for main: time 2019-11-26_23:26:45 on domain   1:    0.28104 elapsed seconds
Timing for main: time 2019-11-26_23:27:00 on domain   1:    0.28177 elapsed seconds
Timing for main: time 2019-11-26_23:27:15 on domain   1:    0.28136 elapsed seconds
Timing for main: time 2019-11-26_23:27:30 on domain   1:    0.27992 elapsed seconds
Timing for main: time 2019-11-26_23:27:45 on domain   1:    0.28157 elapsed seconds
Timing for main: time 2019-11-26_23:28:00 on domain   1:    0.28193 elapsed seconds
Timing for main: time 2019-11-26_23:28:15 on domain   1:    0.28285 elapsed seconds
Timing for main: time 2019-11-26_23:28:30 on domain   1:    0.28102 elapsed seconds
Timing for main: time 2019-11-26_23:28:45 on domain   1:    0.28290 elapsed seconds
Timing for main: time 2019-11-26_23:29:00 on domain   1:    0.28120 elapsed seconds
Timing for main: time 2019-11-26_23:29:15 on domain   1:    0.28022 elapsed seconds
Timing for main: time 2019-11-26_23:29:30 on domain   1:    0.28278 elapsed seconds
Timing for main: time 2019-11-26_23:29:45 on domain   1:    0.28154 elapsed seconds
Timing for main: time 2019-11-26_23:30:00 on domain   1:    0.28263 elapsed seconds
Timing for main: time 2019-11-26_23:30:15 on domain   1:    2.10953 elapsed seconds
Timing for main: time 2019-11-26_23:30:30 on domain   1:    0.29470 elapsed seconds
Timing for main: time 2019-11-26_23:30:45 on domain   1:    0.27361 elapsed seconds
Timing for main: time 2019-11-26_23:31:00 on domain   1:    0.28396 elapsed seconds
Timing for main: time 2019-11-26_23:31:15 on domain   1:    0.28235 elapsed seconds
Timing for main: time 2019-11-26_23:31:30 on domain   1:    0.28074 elapsed seconds
Timing for main: time 2019-11-26_23:31:45 on domain   1:    0.28190 elapsed seconds
Timing for main: time 2019-11-26_23:32:00 on domain   1:    0.28355 elapsed seconds
Timing for main: time 2019-11-26_23:32:15 on domain   1:    0.27888 elapsed seconds
Timing for main: time 2019-11-26_23:32:30 on domain   1:    0.28458 elapsed seconds
Timing for main: time 2019-11-26_23:32:45 on domain   1:    0.28297 elapsed seconds
Timing for main: time 2019-11-26_23:33:00 on domain   1:    0.28150 elapsed seconds
Timing for main: time 2019-11-26_23:33:15 on domain   1:    0.28142 elapsed seconds
Timing for main: time 2019-11-26_23:33:30 on domain   1:    0.28465 elapsed seconds
Timing for main: time 2019-11-26_23:33:45 on domain   1:    0.28132 elapsed seconds
Timing for main: time 2019-11-26_23:34:00 on domain   1:    0.28074 elapsed seconds
Timing for main: time 2019-11-26_23:34:15 on domain   1:    0.28426 elapsed seconds
Timing for main: time 2019-11-26_23:34:30 on domain   1:    0.28001 elapsed seconds
Timing for main: time 2019-11-26_23:34:45 on domain   1:    0.28345 elapsed seconds
Timing for main: time 2019-11-26_23:35:00 on domain   1:    0.28355 elapsed seconds
Timing for main: time 2019-11-26_23:35:15 on domain   1:    0.28177 elapsed seconds
Timing for main: time 2019-11-26_23:35:30 on domain   1:    0.28066 elapsed seconds
Timing for main: time 2019-11-26_23:35:45 on domain   1:    0.28126 elapsed seconds
Timing for main: time 2019-11-26_23:36:00 on domain   1:    0.28079 elapsed seconds
Timing for main: time 2019-11-26_23:36:15 on domain   1:    0.28280 elapsed seconds
Timing for main: time 2019-11-26_23:36:30 on domain   1:    0.28429 elapsed seconds
Timing for main: time 2019-11-26_23:36:45 on domain   1:    0.28174 elapsed seconds
Timing for main: time 2019-11-26_23:37:00 on domain   1:    0.28367 elapsed seconds
Timing for main: time 2019-11-26_23:37:15 on domain   1:    0.28193 elapsed seconds
Timing for main: time 2019-11-26_23:37:30 on domain   1:    0.28368 elapsed seconds
Timing for main: time 2019-11-26_23:37:45 on domain   1:    0.28177 elapsed seconds
Timing for main: time 2019-11-26_23:38:00 on domain   1:    0.28334 elapsed seconds
Timing for main: time 2019-11-26_23:38:15 on domain   1:    0.28138 elapsed seconds
Timing for main: time 2019-11-26_23:38:30 on domain   1:    0.28311 elapsed seconds
Timing for main: time 2019-11-26_23:38:45 on domain   1:    0.28394 elapsed seconds
Timing for main: time 2019-11-26_23:39:00 on domain   1:    0.27824 elapsed seconds
Timing for main: time 2019-11-26_23:39:15 on domain   1:    0.28640 elapsed seconds
Timing for main: time 2019-11-26_23:39:30 on domain   1:    0.28200 elapsed seconds
Timing for main: time 2019-11-26_23:39:45 on domain   1:    0.28220 elapsed seconds
Timing for main: time 2019-11-26_23:40:00 on domain   1:    0.28242 elapsed seconds
Timing for main: time 2019-11-26_23:40:15 on domain   1:    2.09120 elapsed seconds
Timing for main: time 2019-11-26_23:40:30 on domain   1:    0.27560 elapsed seconds
Timing for main: time 2019-11-26_23:40:45 on domain   1:    0.27771 elapsed seconds
Timing for main: time 2019-11-26_23:41:00 on domain   1:    0.28333 elapsed seconds
Timing for main: time 2019-11-26_23:41:15 on domain   1:    0.28191 elapsed seconds
Timing for main: time 2019-11-26_23:41:30 on domain   1:    0.28387 elapsed seconds
Timing for main: time 2019-11-26_23:41:45 on domain   1:    0.28352 elapsed seconds
Timing for main: time 2019-11-26_23:42:00 on domain   1:    0.28382 elapsed seconds
Timing for main: time 2019-11-26_23:42:15 on domain   1:    0.28197 elapsed seconds
Timing for main: time 2019-11-26_23:42:30 on domain   1:    0.28258 elapsed seconds
Timing for main: time 2019-11-26_23:42:45 on domain   1:    0.28192 elapsed seconds
Timing for main: time 2019-11-26_23:43:00 on domain   1:    0.28416 elapsed seconds
Timing for main: time 2019-11-26_23:43:15 on domain   1:    0.28058 elapsed seconds
Timing for main: time 2019-11-26_23:43:30 on domain   1:    0.28449 elapsed seconds
Timing for main: time 2019-11-26_23:43:45 on domain   1:    0.28282 elapsed seconds
Timing for main: time 2019-11-26_23:44:00 on domain   1:    0.28410 elapsed seconds
Timing for main: time 2019-11-26_23:44:15 on domain   1:    0.28378 elapsed seconds
Timing for main: time 2019-11-26_23:44:30 on domain   1:    0.27984 elapsed seconds
Timing for main: time 2019-11-26_23:44:45 on domain   1:    0.28579 elapsed seconds
Timing for main: time 2019-11-26_23:45:00 on domain   1:    0.28365 elapsed seconds
Timing for main: time 2019-11-26_23:45:15 on domain   1:    0.28247 elapsed seconds
Timing for main: time 2019-11-26_23:45:30 on domain   1:    0.28345 elapsed seconds
Timing for main: time 2019-11-26_23:45:45 on domain   1:    0.28155 elapsed seconds
Timing for main: time 2019-11-26_23:46:00 on domain   1:    0.28396 elapsed seconds
Timing for main: time 2019-11-26_23:46:15 on domain   1:    0.28282 elapsed seconds
Timing for main: time 2019-11-26_23:46:30 on domain   1:    0.28301 elapsed seconds
Timing for main: time 2019-11-26_23:46:45 on domain   1:    0.28462 elapsed seconds
Timing for main: time 2019-11-26_23:47:00 on domain   1:    0.28336 elapsed seconds
Timing for main: time 2019-11-26_23:47:15 on domain   1:    0.28462 elapsed seconds
Timing for main: time 2019-11-26_23:47:30 on domain   1:    0.28403 elapsed seconds
Timing for main: time 2019-11-26_23:47:45 on domain   1:    0.28416 elapsed seconds
Timing for main: time 2019-11-26_23:48:00 on domain   1:    0.28324 elapsed seconds
Timing for main: time 2019-11-26_23:48:15 on domain   1:    0.28316 elapsed seconds
Timing for main: time 2019-11-26_23:48:30 on domain   1:    0.28217 elapsed seconds
Timing for main: time 2019-11-26_23:48:45 on domain   1:    0.28604 elapsed seconds
Timing for main: time 2019-11-26_23:49:00 on domain   1:    0.28437 elapsed seconds
Timing for main: time 2019-11-26_23:49:15 on domain   1:    0.28385 elapsed seconds
Timing for main: time 2019-11-26_23:49:30 on domain   1:    0.28411 elapsed seconds
Timing for main: time 2019-11-26_23:49:45 on domain   1:    0.28370 elapsed seconds
Timing for main: time 2019-11-26_23:50:00 on domain   1:    0.28481 elapsed seconds
Timing for main: time 2019-11-26_23:50:15 on domain   1:    2.10035 elapsed seconds
Timing for main: time 2019-11-26_23:50:30 on domain   1:    0.27534 elapsed seconds
Timing for main: time 2019-11-26_23:50:45 on domain   1:    0.27865 elapsed seconds
Timing for main: time 2019-11-26_23:51:00 on domain   1:    0.28694 elapsed seconds
Timing for main: time 2019-11-26_23:51:15 on domain   1:    0.28187 elapsed seconds
Timing for main: time 2019-11-26_23:51:30 on domain   1:    0.48404 elapsed seconds
Timing for main: time 2019-11-26_23:51:45 on domain   1:    1.24381 elapsed seconds
Timing for main: time 2019-11-26_23:52:00 on domain   1:    0.27939 elapsed seconds
Timing for main: time 2019-11-26_23:52:15 on domain   1:    0.27788 elapsed seconds
Timing for main: time 2019-11-26_23:52:30 on domain   1:    0.28702 elapsed seconds
Timing for main: time 2019-11-26_23:52:45 on domain   1:    0.27988 elapsed seconds
Timing for main: time 2019-11-26_23:53:00 on domain   1:    0.28668 elapsed seconds
Timing for main: time 2019-11-26_23:53:15 on domain   1:    1.37305 elapsed seconds
Timing for main: time 2019-11-26_23:53:30 on domain   1:    1.42044 elapsed seconds
Timing for main: time 2019-11-26_23:53:45 on domain   1:    0.27968 elapsed seconds
Timing for main: time 2019-11-26_23:54:00 on domain   1:    0.28009 elapsed seconds
Timing for main: time 2019-11-26_23:54:15 on domain   1:    0.55480 elapsed seconds
Timing for main: time 2019-11-26_23:54:30 on domain   1:    1.30737 elapsed seconds
Timing for main: time 2019-11-26_23:54:45 on domain   1:    1.71174 elapsed seconds
Timing for main: time 2019-11-26_23:55:00 on domain   1:    1.05911 elapsed seconds
Timing for main: time 2019-11-26_23:55:15 on domain   1:    0.28107 elapsed seconds
Timing for main: time 2019-11-26_23:55:30 on domain   1:    0.28496 elapsed seconds
Timing for main: time 2019-11-26_23:55:45 on domain   1:    0.28289 elapsed seconds
Timing for main: time 2019-11-26_23:56:00 on domain   1:    0.28158 elapsed seconds
Timing for main: time 2019-11-26_23:56:15 on domain   1:    0.28495 elapsed seconds
Timing for main: time 2019-11-26_23:56:30 on domain   1:    0.28320 elapsed seconds
Timing for main: time 2019-11-26_23:56:45 on domain   1:    0.28287 elapsed seconds
Timing for main: time 2019-11-26_23:57:00 on domain   1:    0.28315 elapsed seconds
Timing for main: time 2019-11-26_23:57:15 on domain   1:    0.28389 elapsed seconds
Timing for main: time 2019-11-26_23:57:30 on domain   1:    0.27993 elapsed seconds
Timing for main: time 2019-11-26_23:57:45 on domain   1:    0.28429 elapsed seconds
Timing for main: time 2019-11-26_23:58:00 on domain   1:    0.28313 elapsed seconds
Timing for main: time 2019-11-26_23:58:15 on domain   1:    0.28290 elapsed seconds
Timing for main: time 2019-11-26_23:58:30 on domain   1:    0.28418 elapsed seconds
Timing for main: time 2019-11-26_23:58:45 on domain   1:    0.28223 elapsed seconds
Timing for main: time 2019-11-26_23:59:00 on domain   1:    0.28236 elapsed seconds
Timing for main: time 2019-11-26_23:59:15 on domain   1:    0.28429 elapsed seconds
Timing for main: time 2019-11-26_23:59:30 on domain   1:    0.28562 elapsed seconds
Timing for main: time 2019-11-26_23:59:45 on domain   1:    0.28290 elapsed seconds
Timing for main: time 2019-11-27_00:00:00 on domain   1:    0.28152 elapsed seconds
 mediation_integrate.G        1249 DATASET=HISTORY
 mediation_integrate.G        1250  grid%id            1  grid%oid            2
Timing for Writing wrfout_d01_2019-11-27_00:00:00 for domain        1:    7.68363 elapsed seconds
wrf: SUCCESS COMPLETE WRF
