taskid: 0 hostname: x1006c2s3b0n1
 module_io_quilt_old.F        2931 F
Quilting with   1 groups of   0 I/O tasks.
 Ntasks in X           12 , ntasks in Y           16
*************************************
Configuring physics suite 'conus'

         mp_physics:      8
         cu_physics:      0*
      ra_lw_physics:      4
      ra_sw_physics:      4
     bl_pbl_physics:      2
  sf_sfclay_physics:      2
 sf_surface_physics:      2

(* = option overrides suite setting)
*************************************
Domain # 1: dx =  2500.000 m
WRF V4.7.1 MODEL
No git found or not a git repository, git commit version not available.
 *************************************
 Parent domain
 ids,ide,jds,jde            1        1501           1        1201
 ims,ime,jms,jme           -4         132          -4          82
 ips,ipe,jps,jpe            1         125           1          75
 *************************************
DYNAMICS OPTION: Eulerian Mass Coordinate
 alloc_space_field: domain            1 ,             395427244  bytes allocated
med_initialdata_input: calling input_input
 Input data is acceptable to use: wrfinput_d01
 CURRENT DATE          = 2019-11-26_18:00:00
 SIMULATION START DATE = 2019-11-26_18:00:00
Timing for processing wrfinput file (stream 0) for domain        1:   26.30592 elapsed seconds
Max map factor in domain 1 =  1.02. Scale the dt in the model accordingly.
 D01: Time step                              =    15.0000000      (s)
 D01: Grid Distance                          =    2.50000000      (km)
 D01: Grid Distance Ratio dt/dx              =    6.00000000      (s/km)
 D01: Ratio Including Maximum Map Factor     =    6.13815594      (s/km)
 D01: NML defined reasonable_time_step_ratio =    6.00000000
 Climate GHG input from file from year         1765  to         2499
 CO2   range =    277.91300000000001        579.26400000000001       ppm
 N2O   range =    274.37200000000001        359.79800000000000       ppb
 CH4   range =    738.98599999999999        997.31100000000004       ppb
 CFC11 range =    0.0000000000000000        1.4000000000000000E-002  ppt
 CFC12 range =    0.0000000000000000        2.8809999999999998       ppt
 Normal ending of CAMtr_volume_mixing_ratio file
 GHG annual values from CAM trace gas file
 Year =         2019 , Julian day =          330
 CO2   =    4.1280616288937283E-004  volume mixing ratio
 N2O   =    3.3164731848847696E-007  volume mixing ratio
 CH4   =    1.9046224215321381E-006  volume mixing ratio
 CFC11 =    2.1972312207550427E-010  volume mixing ratio
 CFC12 =    4.9756474391800364E-010  volume mixing ratio
INPUT LandUse = "MODIFIED_IGBP_MODIS_NOAH"
 LANDUSE TYPE = "MODIFIED_IGBP_MODIS_NOAH" FOUND          61  CATEGORIES           2  SEASONS WATER CATEGORY =           17  SNOW CATEGORY =           15
INITIALIZE THREE Noah LSM RELATED TABLES
Skipping over LUTYPE = USGS
 LANDUSE TYPE = MODIFIED_IGBP_MODIS_NOAH FOUND          20  CATEGORIES
 INPUT SOIL TEXTURE CLASSIFICATION = STAS
 SOIL TEXTURE CLASSIFICATION = STAS FOUND          19  CATEGORIES
ThompMP: read qr_acr_qg_V4.dat     instead of computing
ThompMP: read qr_acr_qsV2.dat instead of computing
ThompMP: read freezeH2O.dat instead of computing
 mediation_integrate.G        1249 DATASET=HISTORY
 mediation_integrate.G        1250  grid%id            1  grid%oid            1
Timing for Writing wrfout_d01_2019-11-26_18:00:00 for domain        1:    3.99289 elapsed seconds
 Input data is acceptable to use: wrfbdy_d01
Timing for processing lateral boundary for domain        1:    0.93387 elapsed seconds
WRF NUMBER OF TILES FROM OMP_GET_MAX_THREADS =   4
 Tile Strategy is not specified. Assuming 1D-Y
WRF TILE   1 IS      1 IE    125 JS      1 JE     19
WRF TILE   2 IS      1 IE    125 JS     20 JE     38
WRF TILE   3 IS      1 IE    125 JS     39 JE     56
WRF TILE   4 IS      1 IE    125 JS     57 JE     75
WRF NUMBER OF TILES =   4
Timing for main: time 2019-11-26_18:00:15 on domain   1:    8.60241 elapsed seconds
Timing for main: time 2019-11-26_18:00:30 on domain   1:    0.41867 elapsed seconds
Timing for main: time 2019-11-26_18:00:45 on domain   1:    0.41604 elapsed seconds
Timing for main: time 2019-11-26_18:01:00 on domain   1:    0.41585 elapsed seconds
Timing for main: time 2019-11-26_18:01:15 on domain   1:    0.41606 elapsed seconds
Timing for main: time 2019-11-26_18:01:30 on domain   1:    0.41654 elapsed seconds
Timing for main: time 2019-11-26_18:01:45 on domain   1:    0.41558 elapsed seconds
Timing for main: time 2019-11-26_18:02:00 on domain   1:    0.41938 elapsed seconds
Timing for main: time 2019-11-26_18:02:15 on domain   1:    0.41493 elapsed seconds
Timing for main: time 2019-11-26_18:02:30 on domain   1:    0.41478 elapsed seconds
Timing for main: time 2019-11-26_18:02:45 on domain   1:    0.41518 elapsed seconds
Timing for main: time 2019-11-26_18:03:00 on domain   1:    0.41529 elapsed seconds
Timing for main: time 2019-11-26_18:03:15 on domain   1:    0.41471 elapsed seconds
Timing for main: time 2019-11-26_18:03:30 on domain   1:    0.41522 elapsed seconds
Timing for main: time 2019-11-26_18:03:45 on domain   1:    0.41857 elapsed seconds
Timing for main: time 2019-11-26_18:04:00 on domain   1:    0.41594 elapsed seconds
Timing for main: time 2019-11-26_18:04:15 on domain   1:    0.41721 elapsed seconds
Timing for main: time 2019-11-26_18:04:30 on domain   1:    0.41401 elapsed seconds
Timing for main: time 2019-11-26_18:04:45 on domain   1:    0.42181 elapsed seconds
Timing for main: time 2019-11-26_18:05:00 on domain   1:    0.41518 elapsed seconds
Timing for main: time 2019-11-26_18:05:15 on domain   1:    0.41623 elapsed seconds
Timing for main: time 2019-11-26_18:05:30 on domain   1:    0.41627 elapsed seconds
Timing for main: time 2019-11-26_18:05:45 on domain   1:    0.41660 elapsed seconds
Timing for main: time 2019-11-26_18:06:00 on domain   1:    0.41510 elapsed seconds
Timing for main: time 2019-11-26_18:06:15 on domain   1:    0.41574 elapsed seconds
Timing for main: time 2019-11-26_18:06:30 on domain   1:    0.41477 elapsed seconds
Timing for main: time 2019-11-26_18:06:45 on domain   1:    0.41680 elapsed seconds
Timing for main: time 2019-11-26_18:07:00 on domain   1:    0.41674 elapsed seconds
Timing for main: time 2019-11-26_18:07:15 on domain   1:    0.41364 elapsed seconds
Timing for main: time 2019-11-26_18:07:30 on domain   1:    0.41665 elapsed seconds
Timing for main: time 2019-11-26_18:07:45 on domain   1:    0.41857 elapsed seconds
Timing for main: time 2019-11-26_18:08:00 on domain   1:    0.43195 elapsed seconds
Timing for main: time 2019-11-26_18:08:15 on domain   1:    0.41967 elapsed seconds
Timing for main: time 2019-11-26_18:08:30 on domain   1:    0.41655 elapsed seconds
Timing for main: time 2019-11-26_18:08:45 on domain   1:    0.41465 elapsed seconds
Timing for main: time 2019-11-26_18:09:00 on domain   1:    0.41893 elapsed seconds
Timing for main: time 2019-11-26_18:09:15 on domain   1:    0.90768 elapsed seconds
Timing for main: time 2019-11-26_18:09:30 on domain   1:    0.43608 elapsed seconds
Timing for main: time 2019-11-26_18:09:45 on domain   1:    0.41688 elapsed seconds
Timing for main: time 2019-11-26_18:10:00 on domain   1:    0.41686 elapsed seconds
Timing for main: time 2019-11-26_18:10:15 on domain   1:    3.72203 elapsed seconds
Timing for main: time 2019-11-26_18:10:30 on domain   1:    0.41665 elapsed seconds
Timing for main: time 2019-11-26_18:10:45 on domain   1:    0.41993 elapsed seconds
Timing for main: time 2019-11-26_18:11:00 on domain   1:    0.41962 elapsed seconds
Timing for main: time 2019-11-26_18:11:15 on domain   1:    0.41863 elapsed seconds
Timing for main: time 2019-11-26_18:11:30 on domain   1:    0.42221 elapsed seconds
Timing for main: time 2019-11-26_18:11:45 on domain   1:    0.43281 elapsed seconds
Timing for main: time 2019-11-26_18:12:00 on domain   1:    0.42150 elapsed seconds
Timing for main: time 2019-11-26_18:12:15 on domain   1:    0.42223 elapsed seconds
Timing for main: time 2019-11-26_18:12:30 on domain   1:    0.42230 elapsed seconds
Timing for main: time 2019-11-26_18:12:45 on domain   1:    0.42302 elapsed seconds
Timing for main: time 2019-11-26_18:13:00 on domain   1:    0.42206 elapsed seconds
Timing for main: time 2019-11-26_18:13:15 on domain   1:    0.42374 elapsed seconds
Timing for main: time 2019-11-26_18:13:30 on domain   1:    0.42363 elapsed seconds
Timing for main: time 2019-11-26_18:13:45 on domain   1:    0.42619 elapsed seconds
Timing for main: time 2019-11-26_18:14:00 on domain   1:    0.42453 elapsed seconds
Timing for main: time 2019-11-26_18:14:15 on domain   1:    0.42722 elapsed seconds
Timing for main: time 2019-11-26_18:14:30 on domain   1:    0.42561 elapsed seconds
Timing for main: time 2019-11-26_18:14:45 on domain   1:    0.42599 elapsed seconds
Timing for main: time 2019-11-26_18:15:00 on domain   1:    0.42513 elapsed seconds
Timing for main: time 2019-11-26_18:15:15 on domain   1:    0.42748 elapsed seconds
Timing for main: time 2019-11-26_18:15:30 on domain   1:    0.42775 elapsed seconds
Timing for main: time 2019-11-26_18:15:45 on domain   1:    0.78870 elapsed seconds
Timing for main: time 2019-11-26_18:16:00 on domain   1:    1.04480 elapsed seconds
Timing for main: time 2019-11-26_18:16:15 on domain   1:    0.86868 elapsed seconds
Timing for main: time 2019-11-26_18:16:30 on domain   1:    0.42715 elapsed seconds
Timing for main: time 2019-11-26_18:16:45 on domain   1:    0.43081 elapsed seconds
Timing for main: time 2019-11-26_18:17:00 on domain   1:    0.42928 elapsed seconds
Timing for main: time 2019-11-26_18:17:15 on domain   1:    0.42827 elapsed seconds
Timing for main: time 2019-11-26_18:17:30 on domain   1:    0.42711 elapsed seconds
Timing for main: time 2019-11-26_18:17:45 on domain   1:    0.42729 elapsed seconds
Timing for main: time 2019-11-26_18:18:00 on domain   1:    0.43345 elapsed seconds
Timing for main: time 2019-11-26_18:18:15 on domain   1:    0.43062 elapsed seconds
Timing for main: time 2019-11-26_18:18:30 on domain   1:    0.43114 elapsed seconds
Timing for main: time 2019-11-26_18:18:45 on domain   1:    0.42860 elapsed seconds
Timing for main: time 2019-11-26_18:19:00 on domain   1:    0.43154 elapsed seconds
Timing for main: time 2019-11-26_18:19:15 on domain   1:    0.43037 elapsed seconds
Timing for main: time 2019-11-26_18:19:30 on domain   1:    0.42924 elapsed seconds
Timing for main: time 2019-11-26_18:19:45 on domain   1:    0.42970 elapsed seconds
Timing for main: time 2019-11-26_18:20:00 on domain   1:    0.43007 elapsed seconds
Timing for main: time 2019-11-26_18:20:15 on domain   1:    3.79495 elapsed seconds
Timing for main: time 2019-11-26_18:20:30 on domain   1:    0.43030 elapsed seconds
Timing for main: time 2019-11-26_18:20:45 on domain   1:    0.42961 elapsed seconds
Timing for main: time 2019-11-26_18:21:00 on domain   1:    0.42905 elapsed seconds
Timing for main: time 2019-11-26_18:21:15 on domain   1:    0.42975 elapsed seconds
Timing for main: time 2019-11-26_18:21:30 on domain   1:    0.42929 elapsed seconds
Timing for main: time 2019-11-26_18:21:45 on domain   1:    0.43028 elapsed seconds
Timing for main: time 2019-11-26_18:22:00 on domain   1:    0.43019 elapsed seconds
Timing for main: time 2019-11-26_18:22:15 on domain   1:    0.43127 elapsed seconds
Timing for main: time 2019-11-26_18:22:30 on domain   1:    0.43071 elapsed seconds
Timing for main: time 2019-11-26_18:22:45 on domain   1:    0.43360 elapsed seconds
Timing for main: time 2019-11-26_18:23:00 on domain   1:    0.43157 elapsed seconds
Timing for main: time 2019-11-26_18:23:15 on domain   1:    0.43388 elapsed seconds
Timing for main: time 2019-11-26_18:23:30 on domain   1:    0.43082 elapsed seconds
Timing for main: time 2019-11-26_18:23:45 on domain   1:    0.43395 elapsed seconds
Timing for main: time 2019-11-26_18:24:00 on domain   1:    0.43092 elapsed seconds
Timing for main: time 2019-11-26_18:24:15 on domain   1:    0.43226 elapsed seconds
Timing for main: time 2019-11-26_18:24:30 on domain   1:    0.43205 elapsed seconds
Timing for main: time 2019-11-26_18:24:45 on domain   1:    0.43135 elapsed seconds
Timing for main: time 2019-11-26_18:25:00 on domain   1:    0.43265 elapsed seconds
Timing for main: time 2019-11-26_18:25:15 on domain   1:    0.43221 elapsed seconds
Timing for main: time 2019-11-26_18:25:30 on domain   1:    0.43180 elapsed seconds
Timing for main: time 2019-11-26_18:25:45 on domain   1:    0.43189 elapsed seconds
Timing for main: time 2019-11-26_18:26:00 on domain   1:    0.43394 elapsed seconds
Timing for main: time 2019-11-26_18:26:15 on domain   1:    0.43229 elapsed seconds
Timing for main: time 2019-11-26_18:26:30 on domain   1:    0.44098 elapsed seconds
Timing for main: time 2019-11-26_18:26:45 on domain   1:    0.43290 elapsed seconds
Timing for main: time 2019-11-26_18:27:00 on domain   1:    0.85687 elapsed seconds
Timing for main: time 2019-11-26_18:27:15 on domain   1:    0.91501 elapsed seconds
Timing for main: time 2019-11-26_18:27:30 on domain   1:    0.52826 elapsed seconds
Timing for main: time 2019-11-26_18:27:45 on domain   1:    0.43295 elapsed seconds
Timing for main: time 2019-11-26_18:28:00 on domain   1:    0.43344 elapsed seconds
Timing for main: time 2019-11-26_18:28:15 on domain   1:    0.43345 elapsed seconds
Timing for main: time 2019-11-26_18:28:30 on domain   1:    0.43744 elapsed seconds
Timing for main: time 2019-11-26_18:28:45 on domain   1:    0.43798 elapsed seconds
Timing for main: time 2019-11-26_18:29:00 on domain   1:    0.43826 elapsed seconds
Timing for main: time 2019-11-26_18:29:15 on domain   1:    0.66262 elapsed seconds
Timing for main: time 2019-11-26_18:29:30 on domain   1:    0.43247 elapsed seconds
Timing for main: time 2019-11-26_18:29:45 on domain   1:    0.43537 elapsed seconds
Timing for main: time 2019-11-26_18:30:00 on domain   1:    0.44059 elapsed seconds
Timing for main: time 2019-11-26_18:30:15 on domain   1:    3.85893 elapsed seconds
Timing for main: time 2019-11-26_18:30:30 on domain   1:    0.43453 elapsed seconds
Timing for main: time 2019-11-26_18:30:45 on domain   1:    0.43550 elapsed seconds
Timing for main: time 2019-11-26_18:31:00 on domain   1:    0.43702 elapsed seconds
Timing for main: time 2019-11-26_18:31:15 on domain   1:    0.43982 elapsed seconds
Timing for main: time 2019-11-26_18:31:30 on domain   1:    0.43587 elapsed seconds
Timing for main: time 2019-11-26_18:31:45 on domain   1:    0.43971 elapsed seconds
Timing for main: time 2019-11-26_18:32:00 on domain   1:    0.44042 elapsed seconds
Timing for main: time 2019-11-26_18:32:15 on domain   1:    0.43771 elapsed seconds
Timing for main: time 2019-11-26_18:32:30 on domain   1:    0.43740 elapsed seconds
Timing for main: time 2019-11-26_18:32:45 on domain   1:    0.43825 elapsed seconds
Timing for main: time 2019-11-26_18:33:00 on domain   1:    0.43989 elapsed seconds
Timing for main: time 2019-11-26_18:33:15 on domain   1:    0.43738 elapsed seconds
Timing for main: time 2019-11-26_18:33:30 on domain   1:    0.44191 elapsed seconds
Timing for main: time 2019-11-26_18:33:45 on domain   1:    0.43735 elapsed seconds
Timing for main: time 2019-11-26_18:34:00 on domain   1:    0.44257 elapsed seconds
Timing for main: time 2019-11-26_18:34:15 on domain   1:    0.43820 elapsed seconds
Timing for main: time 2019-11-26_18:34:30 on domain   1:    0.44050 elapsed seconds
Timing for main: time 2019-11-26_18:34:45 on domain   1:    0.43983 elapsed seconds
Timing for main: time 2019-11-26_18:35:00 on domain   1:    0.44746 elapsed seconds
Timing for main: time 2019-11-26_18:35:15 on domain   1:    0.43774 elapsed seconds
Timing for main: time 2019-11-26_18:35:30 on domain   1:    0.44169 elapsed seconds
Timing for main: time 2019-11-26_18:35:45 on domain   1:    0.44493 elapsed seconds
Timing for main: time 2019-11-26_18:36:00 on domain   1:    0.43848 elapsed seconds
Timing for main: time 2019-11-26_18:36:15 on domain   1:    0.44871 elapsed seconds
Timing for main: time 2019-11-26_18:36:30 on domain   1:    0.43875 elapsed seconds
Timing for main: time 2019-11-26_18:36:45 on domain   1:    0.44106 elapsed seconds
Timing for main: time 2019-11-26_18:37:00 on domain   1:    0.43912 elapsed seconds
Timing for main: time 2019-11-26_18:37:15 on domain   1:    0.44154 elapsed seconds
Timing for main: time 2019-11-26_18:37:30 on domain   1:    0.44053 elapsed seconds
Timing for main: time 2019-11-26_18:37:45 on domain   1:    0.44302 elapsed seconds
Timing for main: time 2019-11-26_18:38:00 on domain   1:    0.44278 elapsed seconds
Timing for main: time 2019-11-26_18:38:15 on domain   1:    1.01517 elapsed seconds
Timing for main: time 2019-11-26_18:38:30 on domain   1:    0.44009 elapsed seconds
Timing for main: time 2019-11-26_18:38:45 on domain   1:    0.43987 elapsed seconds
Timing for main: time 2019-11-26_18:39:00 on domain   1:    0.44032 elapsed seconds
Timing for main: time 2019-11-26_18:39:15 on domain   1:    0.44368 elapsed seconds
Timing for main: time 2019-11-26_18:39:30 on domain   1:    0.44160 elapsed seconds
Timing for main: time 2019-11-26_18:39:45 on domain   1:    0.44058 elapsed seconds
Timing for main: time 2019-11-26_18:40:00 on domain   1:    0.44400 elapsed seconds
Timing for main: time 2019-11-26_18:40:15 on domain   1:    3.90823 elapsed seconds
Timing for main: time 2019-11-26_18:40:30 on domain   1:    0.44412 elapsed seconds
Timing for main: time 2019-11-26_18:40:45 on domain   1:    0.44534 elapsed seconds
Timing for main: time 2019-11-26_18:41:00 on domain   1:    0.44258 elapsed seconds
Timing for main: time 2019-11-26_18:41:15 on domain   1:    0.44804 elapsed seconds
Timing for main: time 2019-11-26_18:41:30 on domain   1:    0.44052 elapsed seconds
Timing for main: time 2019-11-26_18:41:45 on domain   1:    0.44273 elapsed seconds
Timing for main: time 2019-11-26_18:42:00 on domain   1:    0.44840 elapsed seconds
Timing for main: time 2019-11-26_18:42:15 on domain   1:    0.44479 elapsed seconds
Timing for main: time 2019-11-26_18:42:30 on domain   1:    0.44830 elapsed seconds
Timing for main: time 2019-11-26_18:42:45 on domain   1:    0.44592 elapsed seconds
Timing for main: time 2019-11-26_18:43:00 on domain   1:    0.44763 elapsed seconds
Timing for main: time 2019-11-26_18:43:15 on domain   1:    0.44976 elapsed seconds
Timing for main: time 2019-11-26_18:43:30 on domain   1:    0.44534 elapsed seconds
Timing for main: time 2019-11-26_18:43:45 on domain   1:    0.44774 elapsed seconds
Timing for main: time 2019-11-26_18:44:00 on domain   1:    0.43948 elapsed seconds
Timing for main: time 2019-11-26_18:44:15 on domain   1:    0.44916 elapsed seconds
Timing for main: time 2019-11-26_18:44:30 on domain   1:    0.44610 elapsed seconds
Timing for main: time 2019-11-26_18:44:45 on domain   1:    0.44384 elapsed seconds
Timing for main: time 2019-11-26_18:45:00 on domain   1:    0.44786 elapsed seconds
Timing for main: time 2019-11-26_18:45:15 on domain   1:    0.83439 elapsed seconds
Timing for main: time 2019-11-26_18:45:30 on domain   1:    0.44587 elapsed seconds
Timing for main: time 2019-11-26_18:45:45 on domain   1:    0.44469 elapsed seconds
Timing for main: time 2019-11-26_18:46:00 on domain   1:    0.44875 elapsed seconds
Timing for main: time 2019-11-26_18:46:15 on domain   1:    0.44797 elapsed seconds
Timing for main: time 2019-11-26_18:46:30 on domain   1:    0.44692 elapsed seconds
Timing for main: time 2019-11-26_18:46:45 on domain   1:    0.44855 elapsed seconds
Timing for main: time 2019-11-26_18:47:00 on domain   1:    0.45131 elapsed seconds
Timing for main: time 2019-11-26_18:47:15 on domain   1:    0.44630 elapsed seconds
Timing for main: time 2019-11-26_18:47:30 on domain   1:    0.45042 elapsed seconds
Timing for main: time 2019-11-26_18:47:45 on domain   1:    0.44951 elapsed seconds
Timing for main: time 2019-11-26_18:48:00 on domain   1:    0.44884 elapsed seconds
Timing for main: time 2019-11-26_18:48:15 on domain   1:    0.45112 elapsed seconds
Timing for main: time 2019-11-26_18:48:30 on domain   1:    0.46069 elapsed seconds
Timing for main: time 2019-11-26_18:48:45 on domain   1:    0.47598 elapsed seconds
Timing for main: time 2019-11-26_18:49:00 on domain   1:    0.44375 elapsed seconds
Timing for main: time 2019-11-26_18:49:15 on domain   1:    0.44916 elapsed seconds
Timing for main: time 2019-11-26_18:49:30 on domain   1:    0.46137 elapsed seconds
Timing for main: time 2019-11-26_18:49:45 on domain   1:    0.44785 elapsed seconds
Timing for main: time 2019-11-26_18:50:00 on domain   1:    0.76320 elapsed seconds
Timing for main: time 2019-11-26_18:50:15 on domain   1:    3.96181 elapsed seconds
Timing for main: time 2019-11-26_18:50:30 on domain   1:    0.45135 elapsed seconds
Timing for main: time 2019-11-26_18:50:45 on domain   1:    0.45318 elapsed seconds
Timing for main: time 2019-11-26_18:51:00 on domain   1:    0.45196 elapsed seconds
Timing for main: time 2019-11-26_18:51:15 on domain   1:    0.45050 elapsed seconds
Timing for main: time 2019-11-26_18:51:30 on domain   1:    0.45674 elapsed seconds
Timing for main: time 2019-11-26_18:51:45 on domain   1:    0.45458 elapsed seconds
Timing for main: time 2019-11-26_18:52:00 on domain   1:    0.45946 elapsed seconds
Timing for main: time 2019-11-26_18:52:15 on domain   1:    0.46518 elapsed seconds
Timing for main: time 2019-11-26_18:52:30 on domain   1:    0.45483 elapsed seconds
Timing for main: time 2019-11-26_18:52:45 on domain   1:    0.45213 elapsed seconds
Timing for main: time 2019-11-26_18:53:00 on domain   1:    0.45857 elapsed seconds
Timing for main: time 2019-11-26_18:53:15 on domain   1:    0.45208 elapsed seconds
Timing for main: time 2019-11-26_18:53:30 on domain   1:    0.45627 elapsed seconds
Timing for main: time 2019-11-26_18:53:45 on domain   1:    0.45485 elapsed seconds
Timing for main: time 2019-11-26_18:54:00 on domain   1:    0.45418 elapsed seconds
Timing for main: time 2019-11-26_18:54:15 on domain   1:    0.45301 elapsed seconds
Timing for main: time 2019-11-26_18:54:30 on domain   1:    0.45341 elapsed seconds
Timing for main: time 2019-11-26_18:54:45 on domain   1:    0.45925 elapsed seconds
Timing for main: time 2019-11-26_18:55:00 on domain   1:    0.45621 elapsed seconds
Timing for main: time 2019-11-26_18:55:15 on domain   1:    0.45614 elapsed seconds
Timing for main: time 2019-11-26_18:55:30 on domain   1:    0.46152 elapsed seconds
Timing for main: time 2019-11-26_18:55:45 on domain   1:    0.45658 elapsed seconds
Timing for main: time 2019-11-26_18:56:00 on domain   1:    0.45580 elapsed seconds
Timing for main: time 2019-11-26_18:56:15 on domain   1:    0.45660 elapsed seconds
Timing for main: time 2019-11-26_18:56:30 on domain   1:    0.45884 elapsed seconds
Timing for main: time 2019-11-26_18:56:45 on domain   1:    0.45907 elapsed seconds
Timing for main: time 2019-11-26_18:57:00 on domain   1:    0.45922 elapsed seconds
Timing for main: time 2019-11-26_18:57:15 on domain   1:    0.45656 elapsed seconds
Timing for main: time 2019-11-26_18:57:30 on domain   1:    0.45904 elapsed seconds
Timing for main: time 2019-11-26_18:57:45 on domain   1:    0.45906 elapsed seconds
Timing for main: time 2019-11-26_18:58:00 on domain   1:    0.45596 elapsed seconds
Timing for main: time 2019-11-26_18:58:15 on domain   1:    0.46212 elapsed seconds
Timing for main: time 2019-11-26_18:58:30 on domain   1:    0.45623 elapsed seconds
Timing for main: time 2019-11-26_18:58:45 on domain   1:    0.45838 elapsed seconds
Timing for main: time 2019-11-26_18:59:00 on domain   1:    0.45896 elapsed seconds
Timing for main: time 2019-11-26_18:59:15 on domain   1:    0.45811 elapsed seconds
Timing for main: time 2019-11-26_18:59:30 on domain   1:    0.45792 elapsed seconds
Timing for main: time 2019-11-26_18:59:45 on domain   1:    0.45867 elapsed seconds
Timing for main: time 2019-11-26_19:00:00 on domain   1:    0.46028 elapsed seconds
 mediation_integrate.G        1249 DATASET=HISTORY
 mediation_integrate.G        1250  grid%id            1  grid%oid            2
Timing for Writing wrfout_d01_2019-11-26_19:00:00 for domain        1:    3.64318 elapsed seconds
Timing for main: time 2019-11-26_19:00:15 on domain   1:    7.64352 elapsed seconds
Timing for main: time 2019-11-26_19:00:30 on domain   1:    0.45946 elapsed seconds
Timing for main: time 2019-11-26_19:00:45 on domain   1:    0.46127 elapsed seconds
Timing for main: time 2019-11-26_19:01:00 on domain   1:    0.45990 elapsed seconds
Timing for main: time 2019-11-26_19:01:15 on domain   1:    0.46140 elapsed seconds
Timing for main: time 2019-11-26_19:01:30 on domain   1:    0.71558 elapsed seconds
Timing for main: time 2019-11-26_19:01:45 on domain   1:    0.66118 elapsed seconds
Timing for main: time 2019-11-26_19:02:00 on domain   1:    0.46149 elapsed seconds
Timing for main: time 2019-11-26_19:02:15 on domain   1:    0.46264 elapsed seconds
Timing for main: time 2019-11-26_19:02:30 on domain   1:    0.46224 elapsed seconds
Timing for main: time 2019-11-26_19:02:45 on domain   1:    0.46296 elapsed seconds
Timing for main: time 2019-11-26_19:03:00 on domain   1:    0.46154 elapsed seconds
Timing for main: time 2019-11-26_19:03:15 on domain   1:    0.46289 elapsed seconds
Timing for main: time 2019-11-26_19:03:30 on domain   1:    0.45971 elapsed seconds
Timing for main: time 2019-11-26_19:03:45 on domain   1:    0.46440 elapsed seconds
Timing for main: time 2019-11-26_19:04:00 on domain   1:    0.46048 elapsed seconds
Timing for main: time 2019-11-26_19:04:15 on domain   1:    0.46217 elapsed seconds
Timing for main: time 2019-11-26_19:04:30 on domain   1:    0.46488 elapsed seconds
Timing for main: time 2019-11-26_19:04:45 on domain   1:    0.46744 elapsed seconds
Timing for main: time 2019-11-26_19:05:00 on domain   1:    0.46136 elapsed seconds
Timing for main: time 2019-11-26_19:05:15 on domain   1:    0.46066 elapsed seconds
Timing for main: time 2019-11-26_19:05:30 on domain   1:    0.46366 elapsed seconds
Timing for main: time 2019-11-26_19:05:45 on domain   1:    0.46413 elapsed seconds
Timing for main: time 2019-11-26_19:06:00 on domain   1:    0.46331 elapsed seconds
Timing for main: time 2019-11-26_19:06:15 on domain   1:    0.46422 elapsed seconds
Timing for main: time 2019-11-26_19:06:30 on domain   1:    0.46047 elapsed seconds
Timing for main: time 2019-11-26_19:06:45 on domain   1:    0.46521 elapsed seconds
Timing for main: time 2019-11-26_19:07:00 on domain   1:    0.46672 elapsed seconds
Timing for main: time 2019-11-26_19:07:15 on domain   1:    0.46364 elapsed seconds
Timing for main: time 2019-11-26_19:07:30 on domain   1:    0.48539 elapsed seconds
Timing for main: time 2019-11-26_19:07:45 on domain   1:    0.45844 elapsed seconds
Timing for main: time 2019-11-26_19:08:00 on domain   1:    0.46422 elapsed seconds
Timing for main: time 2019-11-26_19:08:15 on domain   1:    0.46498 elapsed seconds
Timing for main: time 2019-11-26_19:08:30 on domain   1:    0.46602 elapsed seconds
Timing for main: time 2019-11-26_19:08:45 on domain   1:    0.46365 elapsed seconds
Timing for main: time 2019-11-26_19:09:00 on domain   1:    0.46636 elapsed seconds
Timing for main: time 2019-11-26_19:09:15 on domain   1:    0.46373 elapsed seconds
Timing for main: time 2019-11-26_19:09:30 on domain   1:    0.46404 elapsed seconds
Timing for main: time 2019-11-26_19:09:45 on domain   1:    0.46567 elapsed seconds
Timing for main: time 2019-11-26_19:10:00 on domain   1:    0.46907 elapsed seconds
Timing for main: time 2019-11-26_19:10:15 on domain   1:    4.95310 elapsed seconds
Timing for main: time 2019-11-26_19:10:30 on domain   1:    0.46500 elapsed seconds
Timing for main: time 2019-11-26_19:10:45 on domain   1:    0.46655 elapsed seconds
Timing for main: time 2019-11-26_19:11:00 on domain   1:    0.46367 elapsed seconds
Timing for main: time 2019-11-26_19:11:15 on domain   1:    0.46668 elapsed seconds
Timing for main: time 2019-11-26_19:11:30 on domain   1:    0.46798 elapsed seconds
Timing for main: time 2019-11-26_19:11:45 on domain   1:    0.46622 elapsed seconds
Timing for main: time 2019-11-26_19:12:00 on domain   1:    0.46751 elapsed seconds
Timing for main: time 2019-11-26_19:12:15 on domain   1:    0.46630 elapsed seconds
Timing for main: time 2019-11-26_19:12:30 on domain   1:    0.46854 elapsed seconds
Timing for main: time 2019-11-26_19:12:45 on domain   1:    0.46755 elapsed seconds
Timing for main: time 2019-11-26_19:13:00 on domain   1:    0.46708 elapsed seconds
Timing for main: time 2019-11-26_19:13:15 on domain   1:    0.46637 elapsed seconds
Timing for main: time 2019-11-26_19:13:30 on domain   1:    0.47226 elapsed seconds
Timing for main: time 2019-11-26_19:13:45 on domain   1:    0.46835 elapsed seconds
Timing for main: time 2019-11-26_19:14:00 on domain   1:    0.46874 elapsed seconds
Timing for main: time 2019-11-26_19:14:15 on domain   1:    0.47012 elapsed seconds
Timing for main: time 2019-11-26_19:14:30 on domain   1:    0.46777 elapsed seconds
Timing for main: time 2019-11-26_19:14:45 on domain   1:    0.46805 elapsed seconds
Timing for main: time 2019-11-26_19:15:00 on domain   1:    0.46607 elapsed seconds
Timing for main: time 2019-11-26_19:15:15 on domain   1:    0.46693 elapsed seconds
Timing for main: time 2019-11-26_19:15:30 on domain   1:    0.46734 elapsed seconds
Timing for main: time 2019-11-26_19:15:45 on domain   1:    0.47393 elapsed seconds
Timing for main: time 2019-11-26_19:16:00 on domain   1:    0.46751 elapsed seconds
Timing for main: time 2019-11-26_19:16:15 on domain   1:    0.46765 elapsed seconds
Timing for main: time 2019-11-26_19:16:30 on domain   1:    0.46794 elapsed seconds
Timing for main: time 2019-11-26_19:16:45 on domain   1:    0.47476 elapsed seconds
Timing for main: time 2019-11-26_19:17:00 on domain   1:    0.47191 elapsed seconds
Timing for main: time 2019-11-26_19:17:15 on domain   1:    0.46753 elapsed seconds
Timing for main: time 2019-11-26_19:17:30 on domain   1:    0.46802 elapsed seconds
Timing for main: time 2019-11-26_19:17:45 on domain   1:    0.46918 elapsed seconds
Timing for main: time 2019-11-26_19:18:00 on domain   1:    0.46940 elapsed seconds
Timing for main: time 2019-11-26_19:18:15 on domain   1:    0.47005 elapsed seconds
Timing for main: time 2019-11-26_19:18:30 on domain   1:    0.46838 elapsed seconds
Timing for main: time 2019-11-26_19:18:45 on domain   1:    0.47074 elapsed seconds
Timing for main: time 2019-11-26_19:19:00 on domain   1:    0.47088 elapsed seconds
Timing for main: time 2019-11-26_19:19:15 on domain   1:    0.46939 elapsed seconds
Timing for main: time 2019-11-26_19:19:30 on domain   1:    0.46984 elapsed seconds
Timing for main: time 2019-11-26_19:19:45 on domain   1:    0.47069 elapsed seconds
Timing for main: time 2019-11-26_19:20:00 on domain   1:    0.46999 elapsed seconds
Timing for main: time 2019-11-26_19:20:15 on domain   1:    4.57722 elapsed seconds
Timing for main: time 2019-11-26_19:20:30 on domain   1:    0.46811 elapsed seconds
Timing for main: time 2019-11-26_19:20:45 on domain   1:    0.46767 elapsed seconds
Timing for main: time 2019-11-26_19:21:00 on domain   1:    0.46836 elapsed seconds
Timing for main: time 2019-11-26_19:21:15 on domain   1:    0.46958 elapsed seconds
Timing for main: time 2019-11-26_19:21:30 on domain   1:    0.46787 elapsed seconds
Timing for main: time 2019-11-26_19:21:45 on domain   1:    0.47260 elapsed seconds
Timing for main: time 2019-11-26_19:22:00 on domain   1:    0.46988 elapsed seconds
Timing for main: time 2019-11-26_19:22:15 on domain   1:    0.47173 elapsed seconds
Timing for main: time 2019-11-26_19:22:30 on domain   1:    0.47258 elapsed seconds
Timing for main: time 2019-11-26_19:22:45 on domain   1:    0.47108 elapsed seconds
Timing for main: time 2019-11-26_19:23:00 on domain   1:    0.46866 elapsed seconds
Timing for main: time 2019-11-26_19:23:15 on domain   1:    0.47113 elapsed seconds
Timing for main: time 2019-11-26_19:23:30 on domain   1:    0.47083 elapsed seconds
Timing for main: time 2019-11-26_19:23:45 on domain   1:    0.46983 elapsed seconds
Timing for main: time 2019-11-26_19:24:00 on domain   1:    0.47217 elapsed seconds
Timing for main: time 2019-11-26_19:24:15 on domain   1:    0.47128 elapsed seconds
Timing for main: time 2019-11-26_19:24:30 on domain   1:    0.47132 elapsed seconds
Timing for main: time 2019-11-26_19:24:45 on domain   1:    0.47022 elapsed seconds
Timing for main: time 2019-11-26_19:25:00 on domain   1:    0.47072 elapsed seconds
Timing for main: time 2019-11-26_19:25:15 on domain   1:    0.47268 elapsed seconds
Timing for main: time 2019-11-26_19:25:30 on domain   1:    0.46985 elapsed seconds
Timing for main: time 2019-11-26_19:25:45 on domain   1:    0.47058 elapsed seconds
Timing for main: time 2019-11-26_19:26:00 on domain   1:    0.46974 elapsed seconds
Timing for main: time 2019-11-26_19:26:15 on domain   1:    0.47278 elapsed seconds
Timing for main: time 2019-11-26_19:26:30 on domain   1:    0.47308 elapsed seconds
Timing for main: time 2019-11-26_19:26:45 on domain   1:    0.47091 elapsed seconds
Timing for main: time 2019-11-26_19:27:00 on domain   1:    0.47114 elapsed seconds
Timing for main: time 2019-11-26_19:27:15 on domain   1:    0.47038 elapsed seconds
Timing for main: time 2019-11-26_19:27:30 on domain   1:    0.47205 elapsed seconds
Timing for main: time 2019-11-26_19:27:45 on domain   1:    0.47629 elapsed seconds
Timing for main: time 2019-11-26_19:28:00 on domain   1:    0.46992 elapsed seconds
Timing for main: time 2019-11-26_19:28:15 on domain   1:    0.47392 elapsed seconds
Timing for main: time 2019-11-26_19:28:30 on domain   1:    0.47103 elapsed seconds
Timing for main: time 2019-11-26_19:28:45 on domain   1:    0.47388 elapsed seconds
Timing for main: time 2019-11-26_19:29:00 on domain   1:    0.47066 elapsed seconds
Timing for main: time 2019-11-26_19:29:15 on domain   1:    0.47228 elapsed seconds
Timing for main: time 2019-11-26_19:29:30 on domain   1:    0.47174 elapsed seconds
Timing for main: time 2019-11-26_19:29:45 on domain   1:    0.47005 elapsed seconds
Timing for main: time 2019-11-26_19:30:00 on domain   1:    0.47457 elapsed seconds
Timing for main: time 2019-11-26_19:30:15 on domain   1:    4.08322 elapsed seconds
Timing for main: time 2019-11-26_19:30:30 on domain   1:    0.47244 elapsed seconds
Timing for main: time 2019-11-26_19:30:45 on domain   1:    1.02942 elapsed seconds
Timing for main: time 2019-11-26_19:31:00 on domain   1:    0.47295 elapsed seconds
Timing for main: time 2019-11-26_19:31:15 on domain   1:    0.47800 elapsed seconds
Timing for main: time 2019-11-26_19:31:30 on domain   1:    0.47289 elapsed seconds
Timing for main: time 2019-11-26_19:31:45 on domain   1:    0.47465 elapsed seconds
Timing for main: time 2019-11-26_19:32:00 on domain   1:    0.47557 elapsed seconds
Timing for main: time 2019-11-26_19:32:15 on domain   1:    0.47534 elapsed seconds
Timing for main: time 2019-11-26_19:32:30 on domain   1:    0.47575 elapsed seconds
Timing for main: time 2019-11-26_19:32:45 on domain   1:    0.47600 elapsed seconds
Timing for main: time 2019-11-26_19:33:00 on domain   1:    0.47743 elapsed seconds
Timing for main: time 2019-11-26_19:33:15 on domain   1:    0.47569 elapsed seconds
Timing for main: time 2019-11-26_19:33:30 on domain   1:    0.47509 elapsed seconds
Timing for main: time 2019-11-26_19:33:45 on domain   1:    0.47528 elapsed seconds
Timing for main: time 2019-11-26_19:34:00 on domain   1:    0.47659 elapsed seconds
Timing for main: time 2019-11-26_19:34:15 on domain   1:    0.47674 elapsed seconds
Timing for main: time 2019-11-26_19:34:30 on domain   1:    0.47784 elapsed seconds
Timing for main: time 2019-11-26_19:34:45 on domain   1:    0.47484 elapsed seconds
Timing for main: time 2019-11-26_19:35:00 on domain   1:    0.47785 elapsed seconds
Timing for main: time 2019-11-26_19:35:15 on domain   1:    0.47620 elapsed seconds
Timing for main: time 2019-11-26_19:35:30 on domain   1:    0.48084 elapsed seconds
Timing for main: time 2019-11-26_19:35:45 on domain   1:    0.47720 elapsed seconds
Timing for main: time 2019-11-26_19:36:00 on domain   1:    0.48060 elapsed seconds
Timing for main: time 2019-11-26_19:36:15 on domain   1:    0.47754 elapsed seconds
Timing for main: time 2019-11-26_19:36:30 on domain   1:    0.47772 elapsed seconds
Timing for main: time 2019-11-26_19:36:45 on domain   1:    0.47768 elapsed seconds
Timing for main: time 2019-11-26_19:37:00 on domain   1:    0.48001 elapsed seconds
Timing for main: time 2019-11-26_19:37:15 on domain   1:    0.47735 elapsed seconds
Timing for main: time 2019-11-26_19:37:30 on domain   1:    0.47966 elapsed seconds
Timing for main: time 2019-11-26_19:37:45 on domain   1:    0.49610 elapsed seconds
Timing for main: time 2019-11-26_19:38:00 on domain   1:    0.47883 elapsed seconds
Timing for main: time 2019-11-26_19:38:15 on domain   1:    0.47655 elapsed seconds
Timing for main: time 2019-11-26_19:38:30 on domain   1:    0.47937 elapsed seconds
Timing for main: time 2019-11-26_19:38:45 on domain   1:    0.85791 elapsed seconds
Timing for main: time 2019-11-26_19:39:00 on domain   1:    0.47751 elapsed seconds
Timing for main: time 2019-11-26_19:39:15 on domain   1:    0.47755 elapsed seconds
Timing for main: time 2019-11-26_19:39:30 on domain   1:    0.47715 elapsed seconds
Timing for main: time 2019-11-26_19:39:45 on domain   1:    0.47958 elapsed seconds
Timing for main: time 2019-11-26_19:40:00 on domain   1:    0.48030 elapsed seconds
Timing for main: time 2019-11-26_19:40:15 on domain   1:    4.10333 elapsed seconds
Timing for main: time 2019-11-26_19:40:30 on domain   1:    0.82811 elapsed seconds
Timing for main: time 2019-11-26_19:40:45 on domain   1:    0.47847 elapsed seconds
Timing for main: time 2019-11-26_19:41:00 on domain   1:    0.47652 elapsed seconds
Timing for main: time 2019-11-26_19:41:15 on domain   1:    0.47812 elapsed seconds
Timing for main: time 2019-11-26_19:41:30 on domain   1:    0.47919 elapsed seconds
Timing for main: time 2019-11-26_19:41:45 on domain   1:    0.48035 elapsed seconds
Timing for main: time 2019-11-26_19:42:00 on domain   1:    0.47810 elapsed seconds
Timing for main: time 2019-11-26_19:42:15 on domain   1:    0.47783 elapsed seconds
Timing for main: time 2019-11-26_19:42:30 on domain   1:    0.47826 elapsed seconds
Timing for main: time 2019-11-26_19:42:45 on domain   1:    0.47810 elapsed seconds
Timing for main: time 2019-11-26_19:43:00 on domain   1:    0.47829 elapsed seconds
Timing for main: time 2019-11-26_19:43:15 on domain   1:    0.47813 elapsed seconds
Timing for main: time 2019-11-26_19:43:30 on domain   1:    0.47972 elapsed seconds
Timing for main: time 2019-11-26_19:43:45 on domain   1:    0.47767 elapsed seconds
Timing for main: time 2019-11-26_19:44:00 on domain   1:    0.48051 elapsed seconds
Timing for main: time 2019-11-26_19:44:15 on domain   1:    0.48133 elapsed seconds
Timing for main: time 2019-11-26_19:44:30 on domain   1:    0.47901 elapsed seconds
Timing for main: time 2019-11-26_19:44:45 on domain   1:    0.47880 elapsed seconds
Timing for main: time 2019-11-26_19:45:00 on domain   1:    0.47822 elapsed seconds
Timing for main: time 2019-11-26_19:45:15 on domain   1:    0.47900 elapsed seconds
Timing for main: time 2019-11-26_19:45:30 on domain   1:    0.47922 elapsed seconds
Timing for main: time 2019-11-26_19:45:45 on domain   1:    0.47884 elapsed seconds
Timing for main: time 2019-11-26_19:46:00 on domain   1:    0.47778 elapsed seconds
Timing for main: time 2019-11-26_19:46:15 on domain   1:    0.48136 elapsed seconds
Timing for main: time 2019-11-26_19:46:30 on domain   1:    0.47981 elapsed seconds
Timing for main: time 2019-11-26_19:46:45 on domain   1:    0.47788 elapsed seconds
Timing for main: time 2019-11-26_19:47:00 on domain   1:    0.47976 elapsed seconds
Timing for main: time 2019-11-26_19:47:15 on domain   1:    0.47863 elapsed seconds
Timing for main: time 2019-11-26_19:47:30 on domain   1:    0.47963 elapsed seconds
Timing for main: time 2019-11-26_19:47:45 on domain   1:    0.47803 elapsed seconds
Timing for main: time 2019-11-26_19:48:00 on domain   1:    0.47793 elapsed seconds
Timing for main: time 2019-11-26_19:48:15 on domain   1:    0.47916 elapsed seconds
Timing for main: time 2019-11-26_19:48:30 on domain   1:    0.47939 elapsed seconds
Timing for main: time 2019-11-26_19:48:45 on domain   1:    0.47868 elapsed seconds
Timing for main: time 2019-11-26_19:49:00 on domain   1:    0.48021 elapsed seconds
Timing for main: time 2019-11-26_19:49:15 on domain   1:    0.47742 elapsed seconds
Timing for main: time 2019-11-26_19:49:30 on domain   1:    0.47946 elapsed seconds
Timing for main: time 2019-11-26_19:49:45 on domain   1:    0.47800 elapsed seconds
Timing for main: time 2019-11-26_19:50:00 on domain   1:    0.47842 elapsed seconds
Timing for main: time 2019-11-26_19:50:15 on domain   1:    4.10581 elapsed seconds
Timing for main: time 2019-11-26_19:50:30 on domain   1:    0.47838 elapsed seconds
Timing for main: time 2019-11-26_19:50:45 on domain   1:    0.47738 elapsed seconds
Timing for main: time 2019-11-26_19:51:00 on domain   1:    0.48010 elapsed seconds
Timing for main: time 2019-11-26_19:51:15 on domain   1:    0.47902 elapsed seconds
Timing for main: time 2019-11-26_19:51:30 on domain   1:    0.47918 elapsed seconds
Timing for main: time 2019-11-26_19:51:45 on domain   1:    0.47858 elapsed seconds
Timing for main: time 2019-11-26_19:52:00 on domain   1:    0.47897 elapsed seconds
Timing for main: time 2019-11-26_19:52:15 on domain   1:    0.48084 elapsed seconds
Timing for main: time 2019-11-26_19:52:30 on domain   1:    0.47920 elapsed seconds
Timing for main: time 2019-11-26_19:52:45 on domain   1:    0.48124 elapsed seconds
Timing for main: time 2019-11-26_19:53:00 on domain   1:    0.48113 elapsed seconds
Timing for main: time 2019-11-26_19:53:15 on domain   1:    0.47957 elapsed seconds
Timing for main: time 2019-11-26_19:53:30 on domain   1:    0.48082 elapsed seconds
Timing for main: time 2019-11-26_19:53:45 on domain   1:    0.47866 elapsed seconds
Timing for main: time 2019-11-26_19:54:00 on domain   1:    0.48197 elapsed seconds
Timing for main: time 2019-11-26_19:54:15 on domain   1:    0.47879 elapsed seconds
Timing for main: time 2019-11-26_19:54:30 on domain   1:    0.48009 elapsed seconds
Timing for main: time 2019-11-26_19:54:45 on domain   1:    0.47911 elapsed seconds
Timing for main: time 2019-11-26_19:55:00 on domain   1:    0.48117 elapsed seconds
Timing for main: time 2019-11-26_19:55:15 on domain   1:    0.47973 elapsed seconds
Timing for main: time 2019-11-26_19:55:30 on domain   1:    0.96352 elapsed seconds
Timing for main: time 2019-11-26_19:55:45 on domain   1:    0.49207 elapsed seconds
Timing for main: time 2019-11-26_19:56:00 on domain   1:    0.47856 elapsed seconds
Timing for main: time 2019-11-26_19:56:15 on domain   1:    0.47947 elapsed seconds
Timing for main: time 2019-11-26_19:56:30 on domain   1:    0.47953 elapsed seconds
Timing for main: time 2019-11-26_19:56:45 on domain   1:    0.48026 elapsed seconds
Timing for main: time 2019-11-26_19:57:00 on domain   1:    0.48023 elapsed seconds
Timing for main: time 2019-11-26_19:57:15 on domain   1:    0.47975 elapsed seconds
Timing for main: time 2019-11-26_19:57:30 on domain   1:    0.47971 elapsed seconds
Timing for main: time 2019-11-26_19:57:45 on domain   1:    0.48036 elapsed seconds
Timing for main: time 2019-11-26_19:58:00 on domain   1:    0.48069 elapsed seconds
Timing for main: time 2019-11-26_19:58:15 on domain   1:    0.48231 elapsed seconds
Timing for main: time 2019-11-26_19:58:30 on domain   1:    0.47885 elapsed seconds
Timing for main: time 2019-11-26_19:58:45 on domain   1:    0.48263 elapsed seconds
Timing for main: time 2019-11-26_19:59:00 on domain   1:    0.48059 elapsed seconds
Timing for main: time 2019-11-26_19:59:15 on domain   1:    0.47958 elapsed seconds
Timing for main: time 2019-11-26_19:59:30 on domain   1:    0.48162 elapsed seconds
Timing for main: time 2019-11-26_19:59:45 on domain   1:    0.47861 elapsed seconds
Timing for main: time 2019-11-26_20:00:00 on domain   1:    0.49058 elapsed seconds
 mediation_integrate.G        1249 DATASET=HISTORY
 mediation_integrate.G        1250  grid%id            1  grid%oid            2
Timing for Writing wrfout_d01_2019-11-26_20:00:00 for domain        1:    3.63346 elapsed seconds
Timing for main: time 2019-11-26_20:00:15 on domain   1:    7.75534 elapsed seconds
Timing for main: time 2019-11-26_20:00:30 on domain   1:    0.47894 elapsed seconds
Timing for main: time 2019-11-26_20:00:45 on domain   1:    0.47971 elapsed seconds
Timing for main: time 2019-11-26_20:01:00 on domain   1:    0.48016 elapsed seconds
Timing for main: time 2019-11-26_20:01:15 on domain   1:    0.47992 elapsed seconds
Timing for main: time 2019-11-26_20:01:30 on domain   1:    1.14221 elapsed seconds
Timing for main: time 2019-11-26_20:01:45 on domain   1:    1.06759 elapsed seconds
Timing for main: time 2019-11-26_20:02:00 on domain   1:    0.60800 elapsed seconds
Timing for main: time 2019-11-26_20:02:15 on domain   1:    0.48167 elapsed seconds
Timing for main: time 2019-11-26_20:02:30 on domain   1:    0.48005 elapsed seconds
Timing for main: time 2019-11-26_20:02:45 on domain   1:    0.48060 elapsed seconds
Timing for main: time 2019-11-26_20:03:00 on domain   1:    0.48022 elapsed seconds
Timing for main: time 2019-11-26_20:03:15 on domain   1:    0.48012 elapsed seconds
Timing for main: time 2019-11-26_20:03:30 on domain   1:    0.48191 elapsed seconds
Timing for main: time 2019-11-26_20:03:45 on domain   1:    0.48019 elapsed seconds
Timing for main: time 2019-11-26_20:04:00 on domain   1:    0.48353 elapsed seconds
Timing for main: time 2019-11-26_20:04:15 on domain   1:    0.48023 elapsed seconds
Timing for main: time 2019-11-26_20:04:30 on domain   1:    0.47991 elapsed seconds
Timing for main: time 2019-11-26_20:04:45 on domain   1:    0.48067 elapsed seconds
Timing for main: time 2019-11-26_20:05:00 on domain   1:    0.47989 elapsed seconds
Timing for main: time 2019-11-26_20:05:15 on domain   1:    0.48071 elapsed seconds
Timing for main: time 2019-11-26_20:05:30 on domain   1:    0.47939 elapsed seconds
Timing for main: time 2019-11-26_20:05:45 on domain   1:    0.48153 elapsed seconds
Timing for main: time 2019-11-26_20:06:00 on domain   1:    0.47982 elapsed seconds
Timing for main: time 2019-11-26_20:06:15 on domain   1:    0.47936 elapsed seconds
Timing for main: time 2019-11-26_20:06:30 on domain   1:    0.48653 elapsed seconds
Timing for main: time 2019-11-26_20:06:45 on domain   1:    0.48201 elapsed seconds
Timing for main: time 2019-11-26_20:07:00 on domain   1:    0.47988 elapsed seconds
Timing for main: time 2019-11-26_20:07:15 on domain   1:    0.48062 elapsed seconds
Timing for main: time 2019-11-26_20:07:30 on domain   1:    0.47906 elapsed seconds
Timing for main: time 2019-11-26_20:07:45 on domain   1:    0.47949 elapsed seconds
Timing for main: time 2019-11-26_20:08:00 on domain   1:    0.47992 elapsed seconds
Timing for main: time 2019-11-26_20:08:15 on domain   1:    0.49307 elapsed seconds
Timing for main: time 2019-11-26_20:08:30 on domain   1:    0.48007 elapsed seconds
Timing for main: time 2019-11-26_20:08:45 on domain   1:    0.48126 elapsed seconds
Timing for main: time 2019-11-26_20:09:00 on domain   1:    0.47916 elapsed seconds
Timing for main: time 2019-11-26_20:09:15 on domain   1:    0.48227 elapsed seconds
Timing for main: time 2019-11-26_20:09:30 on domain   1:    0.47908 elapsed seconds
Timing for main: time 2019-11-26_20:09:45 on domain   1:    0.48340 elapsed seconds
Timing for main: time 2019-11-26_20:10:00 on domain   1:    0.48090 elapsed seconds
Timing for main: time 2019-11-26_20:10:15 on domain   1:    4.12586 elapsed seconds
Timing for main: time 2019-11-26_20:10:30 on domain   1:    0.48128 elapsed seconds
Timing for main: time 2019-11-26_20:10:45 on domain   1:    0.82609 elapsed seconds
Timing for main: time 2019-11-26_20:11:00 on domain   1:    1.01578 elapsed seconds
Timing for main: time 2019-11-26_20:11:15 on domain   1:    0.52364 elapsed seconds
Timing for main: time 2019-11-26_20:11:30 on domain   1:    0.47970 elapsed seconds
Timing for main: time 2019-11-26_20:11:45 on domain   1:    0.48090 elapsed seconds
Timing for main: time 2019-11-26_20:12:00 on domain   1:    0.71447 elapsed seconds
Timing for main: time 2019-11-26_20:12:15 on domain   1:    0.48170 elapsed seconds
Timing for main: time 2019-11-26_20:12:30 on domain   1:    0.48222 elapsed seconds
Timing for main: time 2019-11-26_20:12:45 on domain   1:    0.48191 elapsed seconds
Timing for main: time 2019-11-26_20:13:00 on domain   1:    0.47986 elapsed seconds
Timing for main: time 2019-11-26_20:13:15 on domain   1:    0.48331 elapsed seconds
Timing for main: time 2019-11-26_20:13:30 on domain   1:    0.48466 elapsed seconds
Timing for main: time 2019-11-26_20:13:45 on domain   1:    0.48353 elapsed seconds
Timing for main: time 2019-11-26_20:14:00 on domain   1:    0.48281 elapsed seconds
Timing for main: time 2019-11-26_20:14:15 on domain   1:    0.48224 elapsed seconds
Timing for main: time 2019-11-26_20:14:30 on domain   1:    0.48134 elapsed seconds
Timing for main: time 2019-11-26_20:14:45 on domain   1:    0.48426 elapsed seconds
Timing for main: time 2019-11-26_20:15:00 on domain   1:    0.48153 elapsed seconds
Timing for main: time 2019-11-26_20:15:15 on domain   1:    0.48392 elapsed seconds
Timing for main: time 2019-11-26_20:15:30 on domain   1:    0.48269 elapsed seconds
Timing for main: time 2019-11-26_20:15:45 on domain   1:    0.48191 elapsed seconds
Timing for main: time 2019-11-26_20:16:00 on domain   1:    0.48514 elapsed seconds
Timing for main: time 2019-11-26_20:16:15 on domain   1:    0.48011 elapsed seconds
Timing for main: time 2019-11-26_20:16:30 on domain   1:    0.48553 elapsed seconds
Timing for main: time 2019-11-26_20:16:45 on domain   1:    0.48526 elapsed seconds
Timing for main: time 2019-11-26_20:17:00 on domain   1:    0.48357 elapsed seconds
Timing for main: time 2019-11-26_20:17:15 on domain   1:    0.48392 elapsed seconds
Timing for main: time 2019-11-26_20:17:30 on domain   1:    0.48265 elapsed seconds
Timing for main: time 2019-11-26_20:17:45 on domain   1:    0.48421 elapsed seconds
Timing for main: time 2019-11-26_20:18:00 on domain   1:    0.48143 elapsed seconds
Timing for main: time 2019-11-26_20:18:15 on domain   1:    0.48549 elapsed seconds
Timing for main: time 2019-11-26_20:18:30 on domain   1:    0.48349 elapsed seconds
Timing for main: time 2019-11-26_20:18:45 on domain   1:    0.48415 elapsed seconds
Timing for main: time 2019-11-26_20:19:00 on domain   1:    0.48380 elapsed seconds
Timing for main: time 2019-11-26_20:19:15 on domain   1:    0.48298 elapsed seconds
Timing for main: time 2019-11-26_20:19:30 on domain   1:    0.48400 elapsed seconds
Timing for main: time 2019-11-26_20:19:45 on domain   1:    0.48481 elapsed seconds
Timing for main: time 2019-11-26_20:20:00 on domain   1:    0.48540 elapsed seconds
Timing for main: time 2019-11-26_20:20:15 on domain   1:    4.57976 elapsed seconds
Timing for main: time 2019-11-26_20:20:30 on domain   1:    0.55754 elapsed seconds
Timing for main: time 2019-11-26_20:20:45 on domain   1:    0.48061 elapsed seconds
Timing for main: time 2019-11-26_20:21:00 on domain   1:    0.48160 elapsed seconds
Timing for main: time 2019-11-26_20:21:15 on domain   1:    0.48315 elapsed seconds
Timing for main: time 2019-11-26_20:21:30 on domain   1:    0.48047 elapsed seconds
Timing for main: time 2019-11-26_20:21:45 on domain   1:    0.48380 elapsed seconds
Timing for main: time 2019-11-26_20:22:00 on domain   1:    0.48181 elapsed seconds
Timing for main: time 2019-11-26_20:22:15 on domain   1:    0.48123 elapsed seconds
Timing for main: time 2019-11-26_20:22:30 on domain   1:    0.48352 elapsed seconds
Timing for main: time 2019-11-26_20:22:45 on domain   1:    0.48362 elapsed seconds
Timing for main: time 2019-11-26_20:23:00 on domain   1:    0.48226 elapsed seconds
Timing for main: time 2019-11-26_20:23:15 on domain   1:    0.48414 elapsed seconds
Timing for main: time 2019-11-26_20:23:30 on domain   1:    0.48414 elapsed seconds
Timing for main: time 2019-11-26_20:23:45 on domain   1:    0.48219 elapsed seconds
Timing for main: time 2019-11-26_20:24:00 on domain   1:    0.48434 elapsed seconds
Timing for main: time 2019-11-26_20:24:15 on domain   1:    0.48135 elapsed seconds
Timing for main: time 2019-11-26_20:24:30 on domain   1:    0.48224 elapsed seconds
Timing for main: time 2019-11-26_20:24:45 on domain   1:    0.48390 elapsed seconds
Timing for main: time 2019-11-26_20:25:00 on domain   1:    0.48408 elapsed seconds
Timing for main: time 2019-11-26_20:25:15 on domain   1:    0.48298 elapsed seconds
Timing for main: time 2019-11-26_20:25:30 on domain   1:    0.48247 elapsed seconds
Timing for main: time 2019-11-26_20:25:45 on domain   1:    0.48499 elapsed seconds
Timing for main: time 2019-11-26_20:26:00 on domain   1:    0.48425 elapsed seconds
Timing for main: time 2019-11-26_20:26:15 on domain   1:    0.48473 elapsed seconds
Timing for main: time 2019-11-26_20:26:30 on domain   1:    0.48398 elapsed seconds
Timing for main: time 2019-11-26_20:26:45 on domain   1:    0.48664 elapsed seconds
Timing for main: time 2019-11-26_20:27:00 on domain   1:    0.48004 elapsed seconds
Timing for main: time 2019-11-26_20:27:15 on domain   1:    0.48332 elapsed seconds
Timing for main: time 2019-11-26_20:27:30 on domain   1:    0.48210 elapsed seconds
Timing for main: time 2019-11-26_20:27:45 on domain   1:    0.48487 elapsed seconds
Timing for main: time 2019-11-26_20:28:00 on domain   1:    0.81543 elapsed seconds
Timing for main: time 2019-11-26_20:28:15 on domain   1:    0.49813 elapsed seconds
Timing for main: time 2019-11-26_20:28:30 on domain   1:    0.48592 elapsed seconds
Timing for main: time 2019-11-26_20:28:45 on domain   1:    0.48370 elapsed seconds
Timing for main: time 2019-11-26_20:29:00 on domain   1:    0.48324 elapsed seconds
Timing for main: time 2019-11-26_20:29:15 on domain   1:    0.48408 elapsed seconds
Timing for main: time 2019-11-26_20:29:30 on domain   1:    0.48446 elapsed seconds
Timing for main: time 2019-11-26_20:29:45 on domain   1:    0.48257 elapsed seconds
Timing for main: time 2019-11-26_20:30:00 on domain   1:    0.48750 elapsed seconds
Timing for main: time 2019-11-26_20:30:15 on domain   1:    4.33243 elapsed seconds
Timing for main: time 2019-11-26_20:30:30 on domain   1:    0.48177 elapsed seconds
Timing for main: time 2019-11-26_20:30:45 on domain   1:    0.48381 elapsed seconds
Timing for main: time 2019-11-26_20:31:00 on domain   1:    0.48130 elapsed seconds
Timing for main: time 2019-11-26_20:31:15 on domain   1:    0.48544 elapsed seconds
Timing for main: time 2019-11-26_20:31:30 on domain   1:    0.48253 elapsed seconds
Timing for main: time 2019-11-26_20:31:45 on domain   1:    0.48367 elapsed seconds
Timing for main: time 2019-11-26_20:32:00 on domain   1:    0.48313 elapsed seconds
Timing for main: time 2019-11-26_20:32:15 on domain   1:    0.48921 elapsed seconds
Timing for main: time 2019-11-26_20:32:30 on domain   1:    0.48076 elapsed seconds
Timing for main: time 2019-11-26_20:32:45 on domain   1:    0.48531 elapsed seconds
Timing for main: time 2019-11-26_20:33:00 on domain   1:    0.48162 elapsed seconds
Timing for main: time 2019-11-26_20:33:15 on domain   1:    0.48660 elapsed seconds
Timing for main: time 2019-11-26_20:33:30 on domain   1:    0.48068 elapsed seconds
Timing for main: time 2019-11-26_20:33:45 on domain   1:    0.48472 elapsed seconds
Timing for main: time 2019-11-26_20:34:00 on domain   1:    0.48324 elapsed seconds
Timing for main: time 2019-11-26_20:34:15 on domain   1:    0.48594 elapsed seconds
Timing for main: time 2019-11-26_20:34:30 on domain   1:    0.48210 elapsed seconds
Timing for main: time 2019-11-26_20:34:45 on domain   1:    0.48320 elapsed seconds
Timing for main: time 2019-11-26_20:35:00 on domain   1:    0.48303 elapsed seconds
Timing for main: time 2019-11-26_20:35:15 on domain   1:    0.48446 elapsed seconds
Timing for main: time 2019-11-26_20:35:30 on domain   1:    0.48492 elapsed seconds
Timing for main: time 2019-11-26_20:35:45 on domain   1:    0.48413 elapsed seconds
Timing for main: time 2019-11-26_20:36:00 on domain   1:    0.48399 elapsed seconds
Timing for main: time 2019-11-26_20:36:15 on domain   1:    0.48346 elapsed seconds
Timing for main: time 2019-11-26_20:36:30 on domain   1:    0.48279 elapsed seconds
Timing for main: time 2019-11-26_20:36:45 on domain   1:    0.48904 elapsed seconds
Timing for main: time 2019-11-26_20:37:00 on domain   1:    0.48039 elapsed seconds
Timing for main: time 2019-11-26_20:37:15 on domain   1:    0.48884 elapsed seconds
Timing for main: time 2019-11-26_20:37:30 on domain   1:    0.48201 elapsed seconds
Timing for main: time 2019-11-26_20:37:45 on domain   1:    0.48651 elapsed seconds
Timing for main: time 2019-11-26_20:38:00 on domain   1:    0.48356 elapsed seconds
Timing for main: time 2019-11-26_20:38:15 on domain   1:    0.48474 elapsed seconds
Timing for main: time 2019-11-26_20:38:30 on domain   1:    0.48363 elapsed seconds
Timing for main: time 2019-11-26_20:38:45 on domain   1:    0.48840 elapsed seconds
Timing for main: time 2019-11-26_20:39:00 on domain   1:    0.48179 elapsed seconds
Timing for main: time 2019-11-26_20:39:15 on domain   1:    0.48672 elapsed seconds
Timing for main: time 2019-11-26_20:39:30 on domain   1:    0.48450 elapsed seconds
Timing for main: time 2019-11-26_20:39:45 on domain   1:    0.48683 elapsed seconds
Timing for main: time 2019-11-26_20:40:00 on domain   1:    0.49083 elapsed seconds
Timing for main: time 2019-11-26_20:40:15 on domain   1:    4.13510 elapsed seconds
Timing for main: time 2019-11-26_20:40:30 on domain   1:    0.48357 elapsed seconds
Timing for main: time 2019-11-26_20:40:45 on domain   1:    0.48651 elapsed seconds
Timing for main: time 2019-11-26_20:41:00 on domain   1:    0.48689 elapsed seconds
Timing for main: time 2019-11-26_20:41:15 on domain   1:    0.48867 elapsed seconds
Timing for main: time 2019-11-26_20:41:30 on domain   1:    0.48443 elapsed seconds
Timing for main: time 2019-11-26_20:41:45 on domain   1:    0.48776 elapsed seconds
Timing for main: time 2019-11-26_20:42:00 on domain   1:    0.48503 elapsed seconds
Timing for main: time 2019-11-26_20:42:15 on domain   1:    0.48972 elapsed seconds
Timing for main: time 2019-11-26_20:42:30 on domain   1:    0.48513 elapsed seconds
Timing for main: time 2019-11-26_20:42:45 on domain   1:    0.49121 elapsed seconds
Timing for main: time 2019-11-26_20:43:00 on domain   1:    0.48642 elapsed seconds
Timing for main: time 2019-11-26_20:43:15 on domain   1:    0.48595 elapsed seconds
Timing for main: time 2019-11-26_20:43:30 on domain   1:    0.48877 elapsed seconds
Timing for main: time 2019-11-26_20:43:45 on domain   1:    0.48572 elapsed seconds
Timing for main: time 2019-11-26_20:44:00 on domain   1:    0.48742 elapsed seconds
Timing for main: time 2019-11-26_20:44:15 on domain   1:    0.48581 elapsed seconds
Timing for main: time 2019-11-26_20:44:30 on domain   1:    0.75837 elapsed seconds
Timing for main: time 2019-11-26_20:44:45 on domain   1:    0.67488 elapsed seconds
Timing for main: time 2019-11-26_20:45:00 on domain   1:    0.48413 elapsed seconds
Timing for main: time 2019-11-26_20:45:15 on domain   1:    0.48814 elapsed seconds
Timing for main: time 2019-11-26_20:45:30 on domain   1:    0.48664 elapsed seconds
Timing for main: time 2019-11-26_20:45:45 on domain   1:    0.48759 elapsed seconds
Timing for main: time 2019-11-26_20:46:00 on domain   1:    0.48525 elapsed seconds
Timing for main: time 2019-11-26_20:46:15 on domain   1:    0.48947 elapsed seconds
Timing for main: time 2019-11-26_20:46:30 on domain   1:    0.48810 elapsed seconds
Timing for main: time 2019-11-26_20:46:45 on domain   1:    0.49564 elapsed seconds
Timing for main: time 2019-11-26_20:47:00 on domain   1:    0.48994 elapsed seconds
Timing for main: time 2019-11-26_20:47:15 on domain   1:    0.48974 elapsed seconds
Timing for main: time 2019-11-26_20:47:30 on domain   1:    0.48639 elapsed seconds
Timing for main: time 2019-11-26_20:47:45 on domain   1:    0.48840 elapsed seconds
Timing for main: time 2019-11-26_20:48:00 on domain   1:    0.48773 elapsed seconds
Timing for main: time 2019-11-26_20:48:15 on domain   1:    0.49755 elapsed seconds
Timing for main: time 2019-11-26_20:48:30 on domain   1:    0.48586 elapsed seconds
Timing for main: time 2019-11-26_20:48:45 on domain   1:    0.49028 elapsed seconds
Timing for main: time 2019-11-26_20:49:00 on domain   1:    0.48610 elapsed seconds
Timing for main: time 2019-11-26_20:49:15 on domain   1:    0.48919 elapsed seconds
Timing for main: time 2019-11-26_20:49:30 on domain   1:    0.48605 elapsed seconds
Timing for main: time 2019-11-26_20:49:45 on domain   1:    0.50747 elapsed seconds
Timing for main: time 2019-11-26_20:50:00 on domain   1:    0.48903 elapsed seconds
Timing for main: time 2019-11-26_20:50:15 on domain   1:    4.15554 elapsed seconds
Timing for main: time 2019-11-26_20:50:30 on domain   1:    0.48636 elapsed seconds
Timing for main: time 2019-11-26_20:50:45 on domain   1:    0.48724 elapsed seconds
Timing for main: time 2019-11-26_20:51:00 on domain   1:    0.48676 elapsed seconds
Timing for main: time 2019-11-26_20:51:15 on domain   1:    0.48844 elapsed seconds
Timing for main: time 2019-11-26_20:51:30 on domain   1:    0.48895 elapsed seconds
Timing for main: time 2019-11-26_20:51:45 on domain   1:    0.48700 elapsed seconds
Timing for main: time 2019-11-26_20:52:00 on domain   1:    0.48998 elapsed seconds
Timing for main: time 2019-11-26_20:52:15 on domain   1:    0.48857 elapsed seconds
Timing for main: time 2019-11-26_20:52:30 on domain   1:    0.48817 elapsed seconds
Timing for main: time 2019-11-26_20:52:45 on domain   1:    0.48691 elapsed seconds
Timing for main: time 2019-11-26_20:53:00 on domain   1:    0.48850 elapsed seconds
Timing for main: time 2019-11-26_20:53:15 on domain   1:    0.48698 elapsed seconds
Timing for main: time 2019-11-26_20:53:30 on domain   1:    0.48831 elapsed seconds
Timing for main: time 2019-11-26_20:53:45 on domain   1:    0.49115 elapsed seconds
Timing for main: time 2019-11-26_20:54:00 on domain   1:    0.48675 elapsed seconds
Timing for main: time 2019-11-26_20:54:15 on domain   1:    0.48636 elapsed seconds
Timing for main: time 2019-11-26_20:54:30 on domain   1:    0.48860 elapsed seconds
Timing for main: time 2019-11-26_20:54:45 on domain   1:    0.48510 elapsed seconds
Timing for main: time 2019-11-26_20:55:00 on domain   1:    0.73600 elapsed seconds
Timing for main: time 2019-11-26_20:55:15 on domain   1:    1.07743 elapsed seconds
Timing for main: time 2019-11-26_20:55:30 on domain   1:    0.96622 elapsed seconds
Timing for main: time 2019-11-26_20:55:45 on domain   1:    0.48913 elapsed seconds
Timing for main: time 2019-11-26_20:56:00 on domain   1:    0.48759 elapsed seconds
Timing for main: time 2019-11-26_20:56:15 on domain   1:    0.48969 elapsed seconds
Timing for main: time 2019-11-26_20:56:30 on domain   1:    0.49026 elapsed seconds
Timing for main: time 2019-11-26_20:56:45 on domain   1:    0.48760 elapsed seconds
Timing for main: time 2019-11-26_20:57:00 on domain   1:    0.48849 elapsed seconds
Timing for main: time 2019-11-26_20:57:15 on domain   1:    0.48782 elapsed seconds
Timing for main: time 2019-11-26_20:57:30 on domain   1:    0.48982 elapsed seconds
Timing for main: time 2019-11-26_20:57:45 on domain   1:    0.48613 elapsed seconds
Timing for main: time 2019-11-26_20:58:00 on domain   1:    0.48865 elapsed seconds
Timing for main: time 2019-11-26_20:58:15 on domain   1:    0.48760 elapsed seconds
Timing for main: time 2019-11-26_20:58:30 on domain   1:    0.48744 elapsed seconds
Timing for main: time 2019-11-26_20:58:45 on domain   1:    0.49132 elapsed seconds
Timing for main: time 2019-11-26_20:59:00 on domain   1:    0.48548 elapsed seconds
Timing for main: time 2019-11-26_20:59:15 on domain   1:    0.48858 elapsed seconds
Timing for main: time 2019-11-26_20:59:30 on domain   1:    0.48921 elapsed seconds
Timing for main: time 2019-11-26_20:59:45 on domain   1:    0.48839 elapsed seconds
Timing for main: time 2019-11-26_21:00:00 on domain   1:    0.48924 elapsed seconds
 mediation_integrate.G        1249 DATASET=HISTORY
 mediation_integrate.G        1250  grid%id            1  grid%oid            2
Timing for Writing wrfout_d01_2019-11-26_21:00:00 for domain        1:    3.68105 elapsed seconds
 Input data is acceptable to use: wrfbdy_d01
Timing for processing lateral boundary for domain        1:    0.81918 elapsed seconds
Timing for main: time 2019-11-26_21:00:15 on domain   1:    8.61034 elapsed seconds
Timing for main: time 2019-11-26_21:00:30 on domain   1:    0.48597 elapsed seconds
Timing for main: time 2019-11-26_21:00:45 on domain   1:    0.78617 elapsed seconds
Timing for main: time 2019-11-26_21:01:00 on domain   1:    1.07306 elapsed seconds
Timing for main: time 2019-11-26_21:01:15 on domain   1:    0.48303 elapsed seconds
Timing for main: time 2019-11-26_21:01:30 on domain   1:    0.71053 elapsed seconds
Timing for main: time 2019-11-26_21:01:45 on domain   1:    0.47988 elapsed seconds
Timing for main: time 2019-11-26_21:02:00 on domain   1:    0.48356 elapsed seconds
Timing for main: time 2019-11-26_21:02:15 on domain   1:    0.48851 elapsed seconds
Timing for main: time 2019-11-26_21:02:30 on domain   1:    0.48305 elapsed seconds
Timing for main: time 2019-11-26_21:02:45 on domain   1:    0.48880 elapsed seconds
Timing for main: time 2019-11-26_21:03:00 on domain   1:    0.48565 elapsed seconds
Timing for main: time 2019-11-26_21:03:15 on domain   1:    0.48940 elapsed seconds
Timing for main: time 2019-11-26_21:03:30 on domain   1:    0.48472 elapsed seconds
Timing for main: time 2019-11-26_21:03:45 on domain   1:    0.49051 elapsed seconds
Timing for main: time 2019-11-26_21:04:00 on domain   1:    0.48512 elapsed seconds
Timing for main: time 2019-11-26_21:04:15 on domain   1:    0.48837 elapsed seconds
Timing for main: time 2019-11-26_21:04:30 on domain   1:    0.48388 elapsed seconds
Timing for main: time 2019-11-26_21:04:45 on domain   1:    0.48874 elapsed seconds
Timing for main: time 2019-11-26_21:05:00 on domain   1:    0.48692 elapsed seconds
Timing for main: time 2019-11-26_21:05:15 on domain   1:    0.48689 elapsed seconds
Timing for main: time 2019-11-26_21:05:30 on domain   1:    0.48808 elapsed seconds
Timing for main: time 2019-11-26_21:05:45 on domain   1:    0.48812 elapsed seconds
Timing for main: time 2019-11-26_21:06:00 on domain   1:    0.48643 elapsed seconds
Timing for main: time 2019-11-26_21:06:15 on domain   1:    0.48805 elapsed seconds
Timing for main: time 2019-11-26_21:06:30 on domain   1:    0.48753 elapsed seconds
Timing for main: time 2019-11-26_21:06:45 on domain   1:    0.49039 elapsed seconds
Timing for main: time 2019-11-26_21:07:00 on domain   1:    0.48538 elapsed seconds
Timing for main: time 2019-11-26_21:07:15 on domain   1:    0.48990 elapsed seconds
Timing for main: time 2019-11-26_21:07:30 on domain   1:    0.48613 elapsed seconds
Timing for main: time 2019-11-26_21:07:45 on domain   1:    0.49021 elapsed seconds
Timing for main: time 2019-11-26_21:08:00 on domain   1:    0.48568 elapsed seconds
Timing for main: time 2019-11-26_21:08:15 on domain   1:    0.48937 elapsed seconds
Timing for main: time 2019-11-26_21:08:30 on domain   1:    0.48853 elapsed seconds
Timing for main: time 2019-11-26_21:08:45 on domain   1:    0.49583 elapsed seconds
Timing for main: time 2019-11-26_21:09:00 on domain   1:    0.48545 elapsed seconds
Timing for main: time 2019-11-26_21:09:15 on domain   1:    0.49463 elapsed seconds
Timing for main: time 2019-11-26_21:09:30 on domain   1:    0.48545 elapsed seconds
Timing for main: time 2019-11-26_21:09:45 on domain   1:    0.48738 elapsed seconds
Timing for main: time 2019-11-26_21:10:00 on domain   1:    0.48797 elapsed seconds
Timing for main: time 2019-11-26_21:10:15 on domain   1:    4.55321 elapsed seconds
Timing for main: time 2019-11-26_21:10:30 on domain   1:    0.48799 elapsed seconds
Timing for main: time 2019-11-26_21:10:45 on domain   1:    0.48725 elapsed seconds
Timing for main: time 2019-11-26_21:11:00 on domain   1:    0.48908 elapsed seconds
Timing for main: time 2019-11-26_21:11:15 on domain   1:    0.48972 elapsed seconds
Timing for main: time 2019-11-26_21:11:30 on domain   1:    0.48716 elapsed seconds
Timing for main: time 2019-11-26_21:11:45 on domain   1:    0.49315 elapsed seconds
Timing for main: time 2019-11-26_21:12:00 on domain   1:    0.48578 elapsed seconds
Timing for main: time 2019-11-26_21:12:15 on domain   1:    0.48812 elapsed seconds
Timing for main: time 2019-11-26_21:12:30 on domain   1:    0.49173 elapsed seconds
Timing for main: time 2019-11-26_21:12:45 on domain   1:    0.48913 elapsed seconds
Timing for main: time 2019-11-26_21:13:00 on domain   1:    0.48825 elapsed seconds
Timing for main: time 2019-11-26_21:13:15 on domain   1:    0.48984 elapsed seconds
Timing for main: time 2019-11-26_21:13:30 on domain   1:    0.49028 elapsed seconds
Timing for main: time 2019-11-26_21:13:45 on domain   1:    0.48832 elapsed seconds
Timing for main: time 2019-11-26_21:14:00 on domain   1:    0.49043 elapsed seconds
Timing for main: time 2019-11-26_21:14:15 on domain   1:    0.48896 elapsed seconds
Timing for main: time 2019-11-26_21:14:30 on domain   1:    0.48652 elapsed seconds
Timing for main: time 2019-11-26_21:14:45 on domain   1:    0.49159 elapsed seconds
Timing for main: time 2019-11-26_21:15:00 on domain   1:    0.48908 elapsed seconds
Timing for main: time 2019-11-26_21:15:15 on domain   1:    0.49082 elapsed seconds
Timing for main: time 2019-11-26_21:15:30 on domain   1:    0.48972 elapsed seconds
Timing for main: time 2019-11-26_21:15:45 on domain   1:    0.48879 elapsed seconds
Timing for main: time 2019-11-26_21:16:00 on domain   1:    0.48893 elapsed seconds
Timing for main: time 2019-11-26_21:16:15 on domain   1:    0.48877 elapsed seconds
Timing for main: time 2019-11-26_21:16:30 on domain   1:    0.49416 elapsed seconds
Timing for main: time 2019-11-26_21:16:45 on domain   1:    0.48629 elapsed seconds
Timing for main: time 2019-11-26_21:17:00 on domain   1:    0.49246 elapsed seconds
Timing for main: time 2019-11-26_21:17:15 on domain   1:    0.48780 elapsed seconds
Timing for main: time 2019-11-26_21:17:30 on domain   1:    0.49124 elapsed seconds
Timing for main: time 2019-11-26_21:17:45 on domain   1:    0.48924 elapsed seconds
Timing for main: time 2019-11-26_21:18:00 on domain   1:    0.67737 elapsed seconds
Timing for main: time 2019-11-26_21:18:15 on domain   1:    0.62077 elapsed seconds
Timing for main: time 2019-11-26_21:18:30 on domain   1:    0.48938 elapsed seconds
Timing for main: time 2019-11-26_21:18:45 on domain   1:    0.48962 elapsed seconds
Timing for main: time 2019-11-26_21:19:00 on domain   1:    0.49028 elapsed seconds
Timing for main: time 2019-11-26_21:19:15 on domain   1:    0.49102 elapsed seconds
Timing for main: time 2019-11-26_21:19:30 on domain   1:    0.50118 elapsed seconds
Timing for main: time 2019-11-26_21:19:45 on domain   1:    0.81926 elapsed seconds
Timing for main: time 2019-11-26_21:20:00 on domain   1:    0.48253 elapsed seconds
Timing for main: time 2019-11-26_21:20:15 on domain   1:    4.13635 elapsed seconds
Timing for main: time 2019-11-26_21:20:30 on domain   1:    0.48920 elapsed seconds
Timing for main: time 2019-11-26_21:20:45 on domain   1:    0.48957 elapsed seconds
Timing for main: time 2019-11-26_21:21:00 on domain   1:    0.48927 elapsed seconds
Timing for main: time 2019-11-26_21:21:15 on domain   1:    0.48958 elapsed seconds
Timing for main: time 2019-11-26_21:21:30 on domain   1:    0.49135 elapsed seconds
Timing for main: time 2019-11-26_21:21:45 on domain   1:    0.48903 elapsed seconds
Timing for main: time 2019-11-26_21:22:00 on domain   1:    0.48956 elapsed seconds
Timing for main: time 2019-11-26_21:22:15 on domain   1:    0.48959 elapsed seconds
Timing for main: time 2019-11-26_21:22:30 on domain   1:    0.49384 elapsed seconds
Timing for main: time 2019-11-26_21:22:45 on domain   1:    0.49014 elapsed seconds
Timing for main: time 2019-11-26_21:23:00 on domain   1:    0.49160 elapsed seconds
Timing for main: time 2019-11-26_21:23:15 on domain   1:    0.48923 elapsed seconds
Timing for main: time 2019-11-26_21:23:30 on domain   1:    0.49046 elapsed seconds
Timing for main: time 2019-11-26_21:23:45 on domain   1:    0.49111 elapsed seconds
Timing for main: time 2019-11-26_21:24:00 on domain   1:    0.49538 elapsed seconds
Timing for main: time 2019-11-26_21:24:15 on domain   1:    0.48743 elapsed seconds
Timing for main: time 2019-11-26_21:24:30 on domain   1:    0.49198 elapsed seconds
Timing for main: time 2019-11-26_21:24:45 on domain   1:    0.48961 elapsed seconds
Timing for main: time 2019-11-26_21:25:00 on domain   1:    0.49046 elapsed seconds
Timing for main: time 2019-11-26_21:25:15 on domain   1:    0.49069 elapsed seconds
Timing for main: time 2019-11-26_21:25:30 on domain   1:    0.49068 elapsed seconds
Timing for main: time 2019-11-26_21:25:45 on domain   1:    0.48869 elapsed seconds
Timing for main: time 2019-11-26_21:26:00 on domain   1:    0.49109 elapsed seconds
Timing for main: time 2019-11-26_21:26:15 on domain   1:    0.49206 elapsed seconds
Timing for main: time 2019-11-26_21:26:30 on domain   1:    0.49071 elapsed seconds
Timing for main: time 2019-11-26_21:26:45 on domain   1:    0.49227 elapsed seconds
Timing for main: time 2019-11-26_21:27:00 on domain   1:    0.49063 elapsed seconds
Timing for main: time 2019-11-26_21:27:15 on domain   1:    0.49398 elapsed seconds
Timing for main: time 2019-11-26_21:27:30 on domain   1:    0.48877 elapsed seconds
Timing for main: time 2019-11-26_21:27:45 on domain   1:    0.49095 elapsed seconds
Timing for main: time 2019-11-26_21:28:00 on domain   1:    0.48948 elapsed seconds
Timing for main: time 2019-11-26_21:28:15 on domain   1:    0.49235 elapsed seconds
Timing for main: time 2019-11-26_21:28:30 on domain   1:    0.49018 elapsed seconds
Timing for main: time 2019-11-26_21:28:45 on domain   1:    0.48962 elapsed seconds
Timing for main: time 2019-11-26_21:29:00 on domain   1:    0.49194 elapsed seconds
Timing for main: time 2019-11-26_21:29:15 on domain   1:    0.49233 elapsed seconds
Timing for main: time 2019-11-26_21:29:30 on domain   1:    0.48920 elapsed seconds
Timing for main: time 2019-11-26_21:29:45 on domain   1:    0.49250 elapsed seconds
Timing for main: time 2019-11-26_21:30:00 on domain   1:    0.49048 elapsed seconds
Timing for main: time 2019-11-26_21:30:15 on domain   1:    4.12259 elapsed seconds
Timing for main: time 2019-11-26_21:30:30 on domain   1:    0.49040 elapsed seconds
Timing for main: time 2019-11-26_21:30:45 on domain   1:    0.48910 elapsed seconds
Timing for main: time 2019-11-26_21:31:00 on domain   1:    0.49360 elapsed seconds
Timing for main: time 2019-11-26_21:31:15 on domain   1:    0.48975 elapsed seconds
Timing for main: time 2019-11-26_21:31:30 on domain   1:    0.49361 elapsed seconds
Timing for main: time 2019-11-26_21:31:45 on domain   1:    0.49099 elapsed seconds
Timing for main: time 2019-11-26_21:32:00 on domain   1:    0.49328 elapsed seconds
Timing for main: time 2019-11-26_21:32:15 on domain   1:    0.49345 elapsed seconds
Timing for main: time 2019-11-26_21:32:30 on domain   1:    0.49120 elapsed seconds
Timing for main: time 2019-11-26_21:32:45 on domain   1:    0.49277 elapsed seconds
Timing for main: time 2019-11-26_21:33:00 on domain   1:    0.49197 elapsed seconds
Timing for main: time 2019-11-26_21:33:15 on domain   1:    0.49392 elapsed seconds
Timing for main: time 2019-11-26_21:33:30 on domain   1:    0.49158 elapsed seconds
Timing for main: time 2019-11-26_21:33:45 on domain   1:    0.49055 elapsed seconds
Timing for main: time 2019-11-26_21:34:00 on domain   1:    0.49150 elapsed seconds
Timing for main: time 2019-11-26_21:34:15 on domain   1:    0.49206 elapsed seconds
Timing for main: time 2019-11-26_21:34:30 on domain   1:    0.49177 elapsed seconds
Timing for main: time 2019-11-26_21:34:45 on domain   1:    0.83736 elapsed seconds
Timing for main: time 2019-11-26_21:35:00 on domain   1:    0.61843 elapsed seconds
Timing for main: time 2019-11-26_21:35:15 on domain   1:    0.49048 elapsed seconds
Timing for main: time 2019-11-26_21:35:30 on domain   1:    0.49036 elapsed seconds
Timing for main: time 2019-11-26_21:35:45 on domain   1:    0.49444 elapsed seconds
Timing for main: time 2019-11-26_21:36:00 on domain   1:    0.49018 elapsed seconds
Timing for main: time 2019-11-26_21:36:15 on domain   1:    0.49336 elapsed seconds
Timing for main: time 2019-11-26_21:36:30 on domain   1:    0.48937 elapsed seconds
Timing for main: time 2019-11-26_21:36:45 on domain   1:    0.49176 elapsed seconds
Timing for main: time 2019-11-26_21:37:00 on domain   1:    0.49319 elapsed seconds
Timing for main: time 2019-11-26_21:37:15 on domain   1:    0.49007 elapsed seconds
Timing for main: time 2019-11-26_21:37:30 on domain   1:    0.49430 elapsed seconds
Timing for main: time 2019-11-26_21:37:45 on domain   1:    0.49144 elapsed seconds
Timing for main: time 2019-11-26_21:38:00 on domain   1:    0.48954 elapsed seconds
Timing for main: time 2019-11-26_21:38:15 on domain   1:    0.49406 elapsed seconds
Timing for main: time 2019-11-26_21:38:30 on domain   1:    0.48962 elapsed seconds
Timing for main: time 2019-11-26_21:38:45 on domain   1:    0.49132 elapsed seconds
Timing for main: time 2019-11-26_21:39:00 on domain   1:    0.49239 elapsed seconds
Timing for main: time 2019-11-26_21:39:15 on domain   1:    0.48832 elapsed seconds
Timing for main: time 2019-11-26_21:39:30 on domain   1:    0.48970 elapsed seconds
Timing for main: time 2019-11-26_21:39:45 on domain   1:    0.49092 elapsed seconds
Timing for main: time 2019-11-26_21:40:00 on domain   1:    0.48864 elapsed seconds
Timing for main: time 2019-11-26_21:40:15 on domain   1:    4.10588 elapsed seconds
Timing for main: time 2019-11-26_21:40:30 on domain   1:    0.48989 elapsed seconds
Timing for main: time 2019-11-26_21:40:45 on domain   1:    0.48990 elapsed seconds
Timing for main: time 2019-11-26_21:41:00 on domain   1:    0.49473 elapsed seconds
Timing for main: time 2019-11-26_21:41:15 on domain   1:    0.49084 elapsed seconds
Timing for main: time 2019-11-26_21:41:30 on domain   1:    0.48751 elapsed seconds
Timing for main: time 2019-11-26_21:41:45 on domain   1:    0.49050 elapsed seconds
Timing for main: time 2019-11-26_21:42:00 on domain   1:    0.49101 elapsed seconds
Timing for main: time 2019-11-26_21:42:15 on domain   1:    0.49249 elapsed seconds
Timing for main: time 2019-11-26_21:42:30 on domain   1:    0.48911 elapsed seconds
Timing for main: time 2019-11-26_21:42:45 on domain   1:    0.49053 elapsed seconds
Timing for main: time 2019-11-26_21:43:00 on domain   1:    0.49010 elapsed seconds
Timing for main: time 2019-11-26_21:43:15 on domain   1:    0.48996 elapsed seconds
Timing for main: time 2019-11-26_21:43:30 on domain   1:    0.49202 elapsed seconds
Timing for main: time 2019-11-26_21:43:45 on domain   1:    0.48922 elapsed seconds
Timing for main: time 2019-11-26_21:44:00 on domain   1:    0.49180 elapsed seconds
[...]
Timing for main: time 2019-11-26_23:01:30 on domain   1:    0.50571 elapsed seconds
Timing for main: time 2019-11-26_23:01:45 on domain   1:    0.50851 elapsed seconds
Timing for main: time 2019-11-26_23:02:00 on domain   1:    0.50678 elapsed seconds
Timing for main: time 2019-11-26_23:02:15 on domain   1:    0.50710 elapsed seconds
Timing for main: time 2019-11-26_23:02:30 on domain   1:    0.50065 elapsed seconds
Timing for main: time 2019-11-26_23:02:45 on domain   1:    0.51200 elapsed seconds
Timing for main: time 2019-11-26_23:03:00 on domain   1:    0.50103 elapsed seconds
Timing for main: time 2019-11-26_23:03:15 on domain   1:    0.50744 elapsed seconds
Timing for main: time 2019-11-26_23:03:30 on domain   1:    0.50104 elapsed seconds
Timing for main: time 2019-11-26_23:03:45 on domain   1:    0.50882 elapsed seconds
Timing for main: time 2019-11-26_23:04:00 on domain   1:    0.50082 elapsed seconds
Timing for main: time 2019-11-26_23:04:15 on domain   1:    0.51162 elapsed seconds
Timing for main: time 2019-11-26_23:04:30 on domain   1:    0.50104 elapsed seconds
Timing for main: time 2019-11-26_23:04:45 on domain   1:    0.50087 elapsed seconds
Timing for main: time 2019-11-26_23:05:00 on domain   1:    0.50461 elapsed seconds
Timing for main: time 2019-11-26_23:05:15 on domain   1:    0.99187 elapsed seconds
Timing for main: time 2019-11-26_23:05:30 on domain   1:    0.52206 elapsed seconds
Timing for main: time 2019-11-26_23:05:45 on domain   1:    0.50183 elapsed seconds
Timing for main: time 2019-11-26_23:06:00 on domain   1:    0.50231 elapsed seconds
Timing for main: time 2019-11-26_23:06:15 on domain   1:    0.50945 elapsed seconds
Timing for main: time 2019-11-26_23:06:30 on domain   1:    0.50139 elapsed seconds
Timing for main: time 2019-11-26_23:06:45 on domain   1:    0.50600 elapsed seconds
Timing for main: time 2019-11-26_23:07:00 on domain   1:    0.50129 elapsed seconds
Timing for main: time 2019-11-26_23:07:15 on domain   1:    0.50982 elapsed seconds
Timing for main: time 2019-11-26_23:07:30 on domain   1:    0.50125 elapsed seconds
Timing for main: time 2019-11-26_23:07:45 on domain   1:    0.50207 elapsed seconds
Timing for main: time 2019-11-26_23:08:00 on domain   1:    0.51181 elapsed seconds
Timing for main: time 2019-11-26_23:08:15 on domain   1:    0.50215 elapsed seconds
Timing for main: time 2019-11-26_23:08:30 on domain   1:    0.50211 elapsed seconds
Timing for main: time 2019-11-26_23:08:45 on domain   1:    0.50773 elapsed seconds
Timing for main: time 2019-11-26_23:09:00 on domain   1:    0.49930 elapsed seconds
Timing for main: time 2019-11-26_23:09:15 on domain   1:    0.50341 elapsed seconds
Timing for main: time 2019-11-26_23:09:30 on domain   1:    0.51009 elapsed seconds
Timing for main: time 2019-11-26_23:09:45 on domain   1:    0.49943 elapsed seconds
Timing for main: time 2019-11-26_23:10:00 on domain   1:    0.50436 elapsed seconds
Timing for main: time 2019-11-26_23:10:15 on domain   1:    3.80241 elapsed seconds
Timing for main: time 2019-11-26_23:10:30 on domain   1:    0.50156 elapsed seconds
Timing for main: time 2019-11-26_23:10:45 on domain   1:    0.50005 elapsed seconds
Timing for main: time 2019-11-26_23:11:00 on domain   1:    0.50051 elapsed seconds
Timing for main: time 2019-11-26_23:11:15 on domain   1:    0.50205 elapsed seconds
Timing for main: time 2019-11-26_23:11:30 on domain   1:    0.50528 elapsed seconds
Timing for main: time 2019-11-26_23:11:45 on domain   1:    0.50861 elapsed seconds
Timing for main: time 2019-11-26_23:12:00 on domain   1:    0.50407 elapsed seconds
Timing for main: time 2019-11-26_23:12:15 on domain   1:    0.50019 elapsed seconds
Timing for main: time 2019-11-26_23:12:30 on domain   1:    0.50078 elapsed seconds
Timing for main: time 2019-11-26_23:12:45 on domain   1:    0.50236 elapsed seconds
Timing for main: time 2019-11-26_23:13:00 on domain   1:    0.50488 elapsed seconds
Timing for main: time 2019-11-26_23:13:15 on domain   1:    0.50440 elapsed seconds
Timing for main: time 2019-11-26_23:13:30 on domain   1:    0.50289 elapsed seconds
Timing for main: time 2019-11-26_23:13:45 on domain   1:    0.50211 elapsed seconds
Timing for main: time 2019-11-26_23:14:00 on domain   1:    0.50453 elapsed seconds
Timing for main: time 2019-11-26_23:14:15 on domain   1:    0.50620 elapsed seconds
Timing for main: time 2019-11-26_23:14:30 on domain   1:    0.50249 elapsed seconds
Timing for main: time 2019-11-26_23:14:45 on domain   1:    0.50000 elapsed seconds
Timing for main: time 2019-11-26_23:15:00 on domain   1:    0.50797 elapsed seconds
Timing for main: time 2019-11-26_23:15:15 on domain   1:    0.50571 elapsed seconds
Timing for main: time 2019-11-26_23:15:30 on domain   1:    0.50469 elapsed seconds
Timing for main: time 2019-11-26_23:15:45 on domain   1:    0.49989 elapsed seconds
Timing for main: time 2019-11-26_23:16:00 on domain   1:    0.50246 elapsed seconds
Timing for main: time 2019-11-26_23:16:15 on domain   1:    0.50588 elapsed seconds
Timing for main: time 2019-11-26_23:16:30 on domain   1:    0.49861 elapsed seconds
Timing for main: time 2019-11-26_23:16:45 on domain   1:    0.50589 elapsed seconds
Timing for main: time 2019-11-26_23:17:00 on domain   1:    0.50104 elapsed seconds
Timing for main: time 2019-11-26_23:17:15 on domain   1:    0.50271 elapsed seconds
Timing for main: time 2019-11-26_23:17:30 on domain   1:    0.50519 elapsed seconds
Timing for main: time 2019-11-26_23:17:45 on domain   1:    0.79866 elapsed seconds
Timing for main: time 2019-11-26_23:18:00 on domain   1:    1.15679 elapsed seconds
Timing for main: time 2019-11-26_23:18:15 on domain   1:    0.85543 elapsed seconds
Timing for main: time 2019-11-26_23:18:30 on domain   1:    0.51677 elapsed seconds
Timing for main: time 2019-11-26_23:18:45 on domain   1:    0.50337 elapsed seconds
Timing for main: time 2019-11-26_23:19:00 on domain   1:    0.50229 elapsed seconds
Timing for main: time 2019-11-26_23:19:15 on domain   1:    0.51282 elapsed seconds
Timing for main: time 2019-11-26_23:19:30 on domain   1:    0.50214 elapsed seconds
Timing for main: time 2019-11-26_23:19:45 on domain   1:    0.50532 elapsed seconds
Timing for main: time 2019-11-26_23:20:00 on domain   1:    0.50373 elapsed seconds
Timing for main: time 2019-11-26_23:20:15 on domain   1:    3.76084 elapsed seconds
Timing for main: time 2019-11-26_23:20:30 on domain   1:    0.49919 elapsed seconds
Timing for main: time 2019-11-26_23:20:45 on domain   1:    0.50349 elapsed seconds
Timing for main: time 2019-11-26_23:21:00 on domain   1:    0.50067 elapsed seconds
Timing for main: time 2019-11-26_23:21:15 on domain   1:    0.50157 elapsed seconds
Timing for main: time 2019-11-26_23:21:30 on domain   1:    0.76130 elapsed seconds
Timing for main: time 2019-11-26_23:21:45 on domain   1:    0.49423 elapsed seconds
Timing for main: time 2019-11-26_23:22:00 on domain   1:    0.50248 elapsed seconds
Timing for main: time 2019-11-26_23:22:15 on domain   1:    0.50247 elapsed seconds
Timing for main: time 2019-11-26_23:22:30 on domain   1:    0.50561 elapsed seconds
Timing for main: time 2019-11-26_23:22:45 on domain   1:    0.50835 elapsed seconds
Timing for main: time 2019-11-26_23:23:00 on domain   1:    0.99851 elapsed seconds
Timing for main: time 2019-11-26_23:23:15 on domain   1:    0.91247 elapsed seconds
Timing for main: time 2019-11-26_23:23:30 on domain   1:    0.48026 elapsed seconds
Timing for main: time 2019-11-26_23:23:45 on domain   1:    0.50232 elapsed seconds
Timing for main: time 2019-11-26_23:24:00 on domain   1:    0.49911 elapsed seconds
Timing for main: time 2019-11-26_23:24:15 on domain   1:    0.50785 elapsed seconds
Timing for main: time 2019-11-26_23:24:30 on domain   1:    0.50155 elapsed seconds
Timing for main: time 2019-11-26_23:24:45 on domain   1:    0.50377 elapsed seconds
Timing for main: time 2019-11-26_23:25:00 on domain   1:    0.51235 elapsed seconds
Timing for main: time 2019-11-26_23:25:15 on domain   1:    0.49905 elapsed seconds
Timing for main: time 2019-11-26_23:25:30 on domain   1:    0.50732 elapsed seconds
Timing for main: time 2019-11-26_23:25:45 on domain   1:    0.50268 elapsed seconds
Timing for main: time 2019-11-26_23:26:00 on domain   1:    0.50817 elapsed seconds
Timing for main: time 2019-11-26_23:26:15 on domain   1:    0.50968 elapsed seconds
Timing for main: time 2019-11-26_23:26:30 on domain   1:    0.51481 elapsed seconds
Timing for main: time 2019-11-26_23:26:45 on domain   1:    0.50081 elapsed seconds
Timing for main: time 2019-11-26_23:27:00 on domain   1:    0.50376 elapsed seconds
Timing for main: time 2019-11-26_23:27:15 on domain   1:    0.50164 elapsed seconds
Timing for main: time 2019-11-26_23:27:30 on domain   1:    0.50723 elapsed seconds
Timing for main: time 2019-11-26_23:27:45 on domain   1:    0.50791 elapsed seconds
Timing for main: time 2019-11-26_23:28:00 on domain   1:    0.50964 elapsed seconds
Timing for main: time 2019-11-26_23:28:15 on domain   1:    0.49866 elapsed seconds
Timing for main: time 2019-11-26_23:28:30 on domain   1:    0.50736 elapsed seconds
Timing for main: time 2019-11-26_23:28:45 on domain   1:    0.50687 elapsed seconds
Timing for main: time 2019-11-26_23:29:00 on domain   1:    0.50284 elapsed seconds
Timing for main: time 2019-11-26_23:29:15 on domain   1:    0.50608 elapsed seconds
Timing for main: time 2019-11-26_23:29:30 on domain   1:    0.50138 elapsed seconds
Timing for main: time 2019-11-26_23:29:45 on domain   1:    0.50675 elapsed seconds
Timing for main: time 2019-11-26_23:30:00 on domain   1:    0.50095 elapsed seconds
Timing for main: time 2019-11-26_23:30:15 on domain   1:    3.74288 elapsed seconds
Timing for main: time 2019-11-26_23:30:30 on domain   1:    0.50002 elapsed seconds
Timing for main: time 2019-11-26_23:30:45 on domain   1:    0.50396 elapsed seconds
Timing for main: time 2019-11-26_23:31:00 on domain   1:    0.50068 elapsed seconds
Timing for main: time 2019-11-26_23:31:15 on domain   1:    0.49905 elapsed seconds
Timing for main: time 2019-11-26_23:31:30 on domain   1:    0.50208 elapsed seconds
Timing for main: time 2019-11-26_23:31:45 on domain   1:    0.51027 elapsed seconds
Timing for main: time 2019-11-26_23:32:00 on domain   1:    0.49973 elapsed seconds
Timing for main: time 2019-11-26_23:32:15 on domain   1:    0.50513 elapsed seconds
Timing for main: time 2019-11-26_23:32:30 on domain   1:    0.50440 elapsed seconds
Timing for main: time 2019-11-26_23:32:45 on domain   1:    0.50006 elapsed seconds
Timing for main: time 2019-11-26_23:33:00 on domain   1:    0.50512 elapsed seconds
Timing for main: time 2019-11-26_23:33:15 on domain   1:    0.50222 elapsed seconds
Timing for main: time 2019-11-26_23:33:30 on domain   1:    0.50674 elapsed seconds
Timing for main: time 2019-11-26_23:33:45 on domain   1:    0.49865 elapsed seconds
Timing for main: time 2019-11-26_23:34:00 on domain   1:    0.51221 elapsed seconds
Timing for main: time 2019-11-26_23:34:15 on domain   1:    0.49939 elapsed seconds
Timing for main: time 2019-11-26_23:34:30 on domain   1:    0.50381 elapsed seconds
Timing for main: time 2019-11-26_23:34:45 on domain   1:    0.51204 elapsed seconds
Timing for main: time 2019-11-26_23:35:00 on domain   1:    0.50314 elapsed seconds
Timing for main: time 2019-11-26_23:35:15 on domain   1:    0.50539 elapsed seconds
Timing for main: time 2019-11-26_23:35:30 on domain   1:    0.50696 elapsed seconds
Timing for main: time 2019-11-26_23:35:45 on domain   1:    0.50233 elapsed seconds
Timing for main: time 2019-11-26_23:36:00 on domain   1:    0.50312 elapsed seconds
Timing for main: time 2019-11-26_23:36:15 on domain   1:    1.11477 elapsed seconds
Timing for main: time 2019-11-26_23:36:30 on domain   1:    0.50146 elapsed seconds
Timing for main: time 2019-11-26_23:36:45 on domain   1:    0.49975 elapsed seconds
Timing for main: time 2019-11-26_23:37:00 on domain   1:    0.50078 elapsed seconds
Timing for main: time 2019-11-26_23:37:15 on domain   1:    0.50079 elapsed seconds
Timing for main: time 2019-11-26_23:37:30 on domain   1:    0.50552 elapsed seconds
Timing for main: time 2019-11-26_23:37:45 on domain   1:    0.87357 elapsed seconds
Timing for main: time 2019-11-26_23:38:00 on domain   1:    0.53927 elapsed seconds
Timing for main: time 2019-11-26_23:38:15 on domain   1:    0.50035 elapsed seconds
Timing for main: time 2019-11-26_23:38:30 on domain   1:    0.50217 elapsed seconds
Timing for main: time 2019-11-26_23:38:45 on domain   1:    0.50981 elapsed seconds
Timing for main: time 2019-11-26_23:39:00 on domain   1:    0.82707 elapsed seconds
Timing for main: time 2019-11-26_23:39:15 on domain   1:    0.50043 elapsed seconds
Timing for main: time 2019-11-26_23:39:30 on domain   1:    0.50334 elapsed seconds
Timing for main: time 2019-11-26_23:39:45 on domain   1:    0.51107 elapsed seconds
Timing for main: time 2019-11-26_23:40:00 on domain   1:    0.50694 elapsed seconds
Timing for main: time 2019-11-26_23:40:15 on domain   1:    3.72577 elapsed seconds
Timing for main: time 2019-11-26_23:40:30 on domain   1:    0.50217 elapsed seconds
Timing for main: time 2019-11-26_23:40:45 on domain   1:    0.50109 elapsed seconds
Timing for main: time 2019-11-26_23:41:00 on domain   1:    0.50317 elapsed seconds
Timing for main: time 2019-11-26_23:41:15 on domain   1:    0.49971 elapsed seconds
Timing for main: time 2019-11-26_23:41:30 on domain   1:    0.51023 elapsed seconds
Timing for main: time 2019-11-26_23:41:45 on domain   1:    0.50299 elapsed seconds
Timing for main: time 2019-11-26_23:42:00 on domain   1:    0.50654 elapsed seconds
Timing for main: time 2019-11-26_23:42:15 on domain   1:    0.50633 elapsed seconds
Timing for main: time 2019-11-26_23:42:30 on domain   1:    0.51954 elapsed seconds
Timing for main: time 2019-11-26_23:42:45 on domain   1:    0.51405 elapsed seconds
Timing for main: time 2019-11-26_23:43:00 on domain   1:    0.50235 elapsed seconds
Timing for main: time 2019-11-26_23:43:15 on domain   1:    0.51394 elapsed seconds
Timing for main: time 2019-11-26_23:43:30 on domain   1:    0.50575 elapsed seconds
Timing for main: time 2019-11-26_23:43:45 on domain   1:    0.50581 elapsed seconds
Timing for main: time 2019-11-26_23:44:00 on domain   1:    0.50397 elapsed seconds
Timing for main: time 2019-11-26_23:44:15 on domain   1:    0.50691 elapsed seconds
Timing for main: time 2019-11-26_23:44:30 on domain   1:    0.50171 elapsed seconds
Timing for main: time 2019-11-26_23:44:45 on domain   1:    0.50642 elapsed seconds
Timing for main: time 2019-11-26_23:45:00 on domain   1:    0.50449 elapsed seconds
Timing for main: time 2019-11-26_23:45:15 on domain   1:    0.50095 elapsed seconds
Timing for main: time 2019-11-26_23:45:30 on domain   1:    0.50375 elapsed seconds
Timing for main: time 2019-11-26_23:45:45 on domain   1:    0.50294 elapsed seconds
Timing for main: time 2019-11-26_23:46:00 on domain   1:    0.50343 elapsed seconds
Timing for main: time 2019-11-26_23:46:15 on domain   1:    0.50742 elapsed seconds
Timing for main: time 2019-11-26_23:46:30 on domain   1:    0.50443 elapsed seconds
Timing for main: time 2019-11-26_23:46:45 on domain   1:    0.50038 elapsed seconds
Timing for main: time 2019-11-26_23:47:00 on domain   1:    0.50709 elapsed seconds
Timing for main: time 2019-11-26_23:47:15 on domain   1:    0.50266 elapsed seconds
Timing for main: time 2019-11-26_23:47:30 on domain   1:    0.51170 elapsed seconds
Timing for main: time 2019-11-26_23:47:45 on domain   1:    0.50219 elapsed seconds
Timing for main: time 2019-11-26_23:48:00 on domain   1:    0.50429 elapsed seconds
Timing for main: time 2019-11-26_23:48:15 on domain   1:    0.50534 elapsed seconds
Timing for main: time 2019-11-26_23:48:30 on domain   1:    0.50660 elapsed seconds
Timing for main: time 2019-11-26_23:48:45 on domain   1:    0.50471 elapsed seconds
Timing for main: time 2019-11-26_23:49:00 on domain   1:    0.50275 elapsed seconds
Timing for main: time 2019-11-26_23:49:15 on domain   1:    0.51027 elapsed seconds
Timing for main: time 2019-11-26_23:49:30 on domain   1:    0.50215 elapsed seconds
Timing for main: time 2019-11-26_23:49:45 on domain   1:    0.50866 elapsed seconds
Timing for main: time 2019-11-26_23:50:00 on domain   1:    0.50414 elapsed seconds
Timing for main: time 2019-11-26_23:50:15 on domain   1:    3.73757 elapsed seconds
Timing for main: time 2019-11-26_23:50:30 on domain   1:    0.50587 elapsed seconds
Timing for main: time 2019-11-26_23:50:45 on domain   1:    0.50516 elapsed seconds
Timing for main: time 2019-11-26_23:51:00 on domain   1:    0.50512 elapsed seconds
Timing for main: time 2019-11-26_23:51:15 on domain   1:    0.50650 elapsed seconds
Timing for main: time 2019-11-26_23:51:30 on domain   1:    0.50579 elapsed seconds
Timing for main: time 2019-11-26_23:51:45 on domain   1:    0.50558 elapsed seconds
Timing for main: time 2019-11-26_23:52:00 on domain   1:    0.50795 elapsed seconds
Timing for main: time 2019-11-26_23:52:15 on domain   1:    0.50709 elapsed seconds
Timing for main: time 2019-11-26_23:52:30 on domain   1:    0.50681 elapsed seconds
Timing for main: time 2019-11-26_23:52:45 on domain   1:    0.50780 elapsed seconds
Timing for main: time 2019-11-26_23:53:00 on domain   1:    0.51007 elapsed seconds
Timing for main: time 2019-11-26_23:53:15 on domain   1:    0.50642 elapsed seconds
Timing for main: time 2019-11-26_23:53:30 on domain   1:    0.50869 elapsed seconds
Timing for main: time 2019-11-26_23:53:45 on domain   1:    0.50342 elapsed seconds
Timing for main: time 2019-11-26_23:54:00 on domain   1:    0.50618 elapsed seconds
Timing for main: time 2019-11-26_23:54:15 on domain   1:    0.50476 elapsed seconds
Timing for main: time 2019-11-26_23:54:30 on domain   1:    0.50728 elapsed seconds
Timing for main: time 2019-11-26_23:54:45 on domain   1:    0.50512 elapsed seconds
Timing for main: time 2019-11-26_23:55:00 on domain   1:    0.51067 elapsed seconds
Timing for main: time 2019-11-26_23:55:15 on domain   1:    0.50459 elapsed seconds
Timing for main: time 2019-11-26_23:55:30 on domain   1:    1.03365 elapsed seconds
Timing for main: time 2019-11-26_23:55:45 on domain   1:    0.50713 elapsed seconds
Timing for main: time 2019-11-26_23:56:00 on domain   1:    0.50774 elapsed seconds
Timing for main: time 2019-11-26_23:56:15 on domain   1:    0.50728 elapsed seconds
Timing for main: time 2019-11-26_23:56:30 on domain   1:    0.51923 elapsed seconds
Timing for main: time 2019-11-26_23:56:45 on domain   1:    0.50685 elapsed seconds
Timing for main: time 2019-11-26_23:57:00 on domain   1:    0.51209 elapsed seconds
Timing for main: time 2019-11-26_23:57:15 on domain   1:    0.50570 elapsed seconds
Timing for main: time 2019-11-26_23:57:30 on domain   1:    0.51339 elapsed seconds
Timing for main: time 2019-11-26_23:57:45 on domain   1:    0.50785 elapsed seconds
Timing for main: time 2019-11-26_23:58:00 on domain   1:    0.51211 elapsed seconds
Timing for main: time 2019-11-26_23:58:15 on domain   1:    0.50788 elapsed seconds
Timing for main: time 2019-11-26_23:58:30 on domain   1:    0.50833 elapsed seconds
Timing for main: time 2019-11-26_23:58:45 on domain   1:    0.50854 elapsed seconds
Timing for main: time 2019-11-26_23:59:00 on domain   1:    0.50583 elapsed seconds
Timing for main: time 2019-11-26_23:59:15 on domain   1:    0.50312 elapsed seconds
Timing for main: time 2019-11-26_23:59:30 on domain   1:    0.50899 elapsed seconds
Timing for main: time 2019-11-26_23:59:45 on domain   1:    0.50527 elapsed seconds
Timing for main: time 2019-11-27_00:00:00 on domain   1:    0.50904 elapsed seconds
 mediation_integrate.G        1249 DATASET=HISTORY
 mediation_integrate.G        1250  grid%id            1  grid%oid            2
Timing for Writing wrfout_d01_2019-11-27_00:00:00 for domain        1:    3.68267 elapsed seconds
wrf: SUCCESS COMPLETE WRF
