taskid: 0 hostname: x1003c2s1b0n1
 module_io_quilt_old.F        2931 F
Quilting with   1 groups of   0 I/O tasks.
 Ntasks in X            8 , ntasks in Y           12
*************************************
Configuring physics suite 'conus'

         mp_physics:      8
         cu_physics:      0*
      ra_lw_physics:      4
      ra_sw_physics:      4
     bl_pbl_physics:      2
  sf_sfclay_physics:      2
 sf_surface_physics:      2

(* = option overrides suite setting)
*************************************
Domain # 1: dx =  2500.000 m
WRF V4.7.1 MODEL
No git found or not a git repository, git commit version not available.
 *************************************
 Parent domain
 ids,ide,jds,jde            1        1501           1        1201
 ims,ime,jms,jme           -4         195          -4         107
 ips,ipe,jps,jpe            1         188           1         100
 *************************************
DYNAMICS OPTION: Eulerian Mass Coordinate
 alloc_space_field: domain            1 ,             730206116  bytes allocated
med_initialdata_input: calling input_input
 Input data is acceptable to use: wrfinput_d01
 CURRENT DATE          = 2019-11-26_18:00:00
 SIMULATION START DATE = 2019-11-26_18:00:00
Timing for processing wrfinput file (stream 0) for domain        1:   36.64554 elapsed seconds
Max map factor in domain 1 =  1.02. Scale the dt in the model accordingly.
 D01: Time step                              =    15.0000000      (s)
 D01: Grid Distance                          =    2.50000000      (km)
 D01: Grid Distance Ratio dt/dx              =    6.00000000      (s/km)
 D01: Ratio Including Maximum Map Factor     =    6.13815594      (s/km)
 D01: NML defined reasonable_time_step_ratio =    6.00000000
 Climate GHG input from file from year         1765  to         2499
 CO2   range =    277.91300000000001        579.26400000000001       ppm
 N2O   range =    274.37200000000001        359.79800000000000       ppb
 CH4   range =    738.98599999999999        997.31100000000004       ppb
 CFC11 range =    0.0000000000000000        1.4000000000000000E-002  ppt
 CFC12 range =    0.0000000000000000        2.8809999999999998       ppt
 Normal ending of CAMtr_volume_mixing_ratio file
 GHG annual values from CAM trace gas file
 Year =         2019 , Julian day =          330
 CO2   =    4.1280616288937283E-004  volume mixing ratio
 N2O   =    3.3164731848847696E-007  volume mixing ratio
 CH4   =    1.9046224215321381E-006  volume mixing ratio
 CFC11 =    2.1972312207550427E-010  volume mixing ratio
 CFC12 =    4.9756474391800364E-010  volume mixing ratio
INPUT LandUse = "MODIFIED_IGBP_MODIS_NOAH"
 LANDUSE TYPE = "MODIFIED_IGBP_MODIS_NOAH" FOUND          61  CATEGORIES           2  SEASONS WATER CATEGORY =           17  SNOW CATEGORY =           15
INITIALIZE THREE Noah LSM RELATED TABLES
Skipping over LUTYPE = USGS
 LANDUSE TYPE = MODIFIED_IGBP_MODIS_NOAH FOUND          20  CATEGORIES
 INPUT SOIL TEXTURE CLASSIFICATION = STAS
 SOIL TEXTURE CLASSIFICATION = STAS FOUND          19  CATEGORIES
ThompMP: read qr_acr_qg_V4.dat     instead of computing
ThompMP: read qr_acr_qsV2.dat instead of computing
ThompMP: read freezeH2O.dat instead of computing
 mediation_integrate.G        1249 DATASET=HISTORY
 mediation_integrate.G        1250  grid%id            1  grid%oid            1
Timing for Writing wrfout_d01_2019-11-26_18:00:00 for domain        1:    6.78938 elapsed seconds
 Input data is acceptable to use: wrfbdy_d01
Timing for processing lateral boundary for domain        1:    0.84781 elapsed seconds
WRF NUMBER OF TILES FROM OMP_GET_MAX_THREADS =   1
 Tile Strategy is not specified. Assuming 1D-Y
WRF TILE   1 IS      1 IE    188 JS      1 JE    100
WRF NUMBER OF TILES =   1
 ----------------------------------------
 W-DAMPING  BEGINS AT W-COURANT NUMBER =    1.00000000
 ----------------------------------------
Timing for main: time 2019-11-26_18:00:15 on domain   1:   36.94777 elapsed seconds
Timing for main: time 2019-11-26_18:00:30 on domain   1:    3.75367 elapsed seconds
Timing for main: time 2019-11-26_18:00:45 on domain   1:    3.75024 elapsed seconds
Timing for main: time 2019-11-26_18:01:00 on domain   1:    3.75156 elapsed seconds
Timing for main: time 2019-11-26_18:01:15 on domain   1:    3.75854 elapsed seconds
Timing for main: time 2019-11-26_18:01:30 on domain   1:    3.75952 elapsed seconds
Timing for main: time 2019-11-26_18:01:45 on domain   1:    3.75383 elapsed seconds
Timing for main: time 2019-11-26_18:02:00 on domain   1:    3.75659 elapsed seconds
Timing for main: time 2019-11-26_18:02:15 on domain   1:    3.75646 elapsed seconds
Timing for main: time 2019-11-26_18:02:30 on domain   1:    3.76037 elapsed seconds
Timing for main: time 2019-11-26_18:02:45 on domain   1:    3.75295 elapsed seconds
Timing for main: time 2019-11-26_18:03:00 on domain   1:    3.75974 elapsed seconds
Timing for main: time 2019-11-26_18:03:15 on domain   1:    3.76054 elapsed seconds
Timing for main: time 2019-11-26_18:03:30 on domain   1:    3.77391 elapsed seconds
Timing for main: time 2019-11-26_18:03:45 on domain   1:    3.76110 elapsed seconds
Timing for main: time 2019-11-26_18:04:00 on domain   1:    3.76078 elapsed seconds
Timing for main: time 2019-11-26_18:04:15 on domain   1:    3.76533 elapsed seconds
Timing for main: time 2019-11-26_18:04:30 on domain   1:    3.76503 elapsed seconds
Timing for main: time 2019-11-26_18:04:45 on domain   1:    3.76158 elapsed seconds
Timing for main: time 2019-11-26_18:05:00 on domain   1:    3.76344 elapsed seconds
Timing for main: time 2019-11-26_18:05:15 on domain   1:    3.76490 elapsed seconds
Timing for main: time 2019-11-26_18:05:30 on domain   1:    3.76661 elapsed seconds
Timing for main: time 2019-11-26_18:05:45 on domain   1:    3.76675 elapsed seconds
Timing for main: time 2019-11-26_18:06:00 on domain   1:    3.76430 elapsed seconds
Timing for main: time 2019-11-26_18:06:15 on domain   1:    3.77180 elapsed seconds
Timing for main: time 2019-11-26_18:06:30 on domain   1:    3.76240 elapsed seconds
Timing for main: time 2019-11-26_18:06:45 on domain   1:    3.76852 elapsed seconds
Timing for main: time 2019-11-26_18:07:00 on domain   1:    3.77027 elapsed seconds
Timing for main: time 2019-11-26_18:07:15 on domain   1:    3.77181 elapsed seconds
Timing for main: time 2019-11-26_18:07:30 on domain   1:    3.77676 elapsed seconds
Timing for main: time 2019-11-26_18:07:45 on domain   1:    3.76731 elapsed seconds
Timing for main: time 2019-11-26_18:08:00 on domain   1:    3.76779 elapsed seconds
Timing for main: time 2019-11-26_18:08:15 on domain   1:    3.77458 elapsed seconds
Timing for main: time 2019-11-26_18:08:30 on domain   1:    3.77433 elapsed seconds
Timing for main: time 2019-11-26_18:08:45 on domain   1:    3.77655 elapsed seconds
Timing for main: time 2019-11-26_18:09:00 on domain   1:    3.77292 elapsed seconds
Timing for main: time 2019-11-26_18:09:15 on domain   1:    3.77659 elapsed seconds
Timing for main: time 2019-11-26_18:09:30 on domain   1:    3.77505 elapsed seconds
Timing for main: time 2019-11-26_18:09:45 on domain   1:    3.78030 elapsed seconds
Timing for main: time 2019-11-26_18:10:00 on domain   1:    3.77656 elapsed seconds
Timing for main: time 2019-11-26_18:10:15 on domain   1:   29.97119 elapsed seconds
Timing for main: time 2019-11-26_18:10:30 on domain   1:    3.78055 elapsed seconds
Timing for main: time 2019-11-26_18:10:45 on domain   1:    3.79126 elapsed seconds
Timing for main: time 2019-11-26_18:11:00 on domain   1:    3.78384 elapsed seconds
Timing for main: time 2019-11-26_18:11:15 on domain   1:    3.78486 elapsed seconds
Timing for main: time 2019-11-26_18:11:30 on domain   1:    3.78420 elapsed seconds
Timing for main: time 2019-11-26_18:11:45 on domain   1:    3.78266 elapsed seconds
Timing for main: time 2019-11-26_18:12:00 on domain   1:    3.78679 elapsed seconds
Timing for main: time 2019-11-26_18:12:15 on domain   1:    3.79234 elapsed seconds
Timing for main: time 2019-11-26_18:12:30 on domain   1:    3.78501 elapsed seconds
Timing for main: time 2019-11-26_18:12:45 on domain   1:    3.78427 elapsed seconds
Timing for main: time 2019-11-26_18:13:00 on domain   1:    3.78481 elapsed seconds
Timing for main: time 2019-11-26_18:13:15 on domain   1:    3.79201 elapsed seconds
Timing for main: time 2019-11-26_18:13:30 on domain   1:    3.78941 elapsed seconds
Timing for main: time 2019-11-26_18:13:45 on domain   1:    3.80134 elapsed seconds
Timing for main: time 2019-11-26_18:14:00 on domain   1:    3.78817 elapsed seconds
Timing for main: time 2019-11-26_18:14:15 on domain   1:    3.79081 elapsed seconds
Timing for main: time 2019-11-26_18:14:30 on domain   1:    3.78797 elapsed seconds
Timing for main: time 2019-11-26_18:14:45 on domain   1:    3.79433 elapsed seconds
Timing for main: time 2019-11-26_18:15:00 on domain   1:    3.79987 elapsed seconds
Timing for main: time 2019-11-26_18:15:15 on domain   1:    3.79824 elapsed seconds
Timing for main: time 2019-11-26_18:15:30 on domain   1:    3.79588 elapsed seconds
Timing for main: time 2019-11-26_18:15:45 on domain   1:    3.79360 elapsed seconds
Timing for main: time 2019-11-26_18:16:00 on domain   1:    3.79405 elapsed seconds
Timing for main: time 2019-11-26_18:16:15 on domain   1:    3.79164 elapsed seconds
Timing for main: time 2019-11-26_18:16:30 on domain   1:    3.79768 elapsed seconds
Timing for main: time 2019-11-26_18:16:45 on domain   1:    3.80004 elapsed seconds
Timing for main: time 2019-11-26_18:17:00 on domain   1:    3.80558 elapsed seconds
Timing for main: time 2019-11-26_18:17:15 on domain   1:    3.79937 elapsed seconds
Timing for main: time 2019-11-26_18:17:30 on domain   1:    3.79349 elapsed seconds
Timing for main: time 2019-11-26_18:17:45 on domain   1:    3.79980 elapsed seconds
Timing for main: time 2019-11-26_18:18:00 on domain   1:    3.79993 elapsed seconds
Timing for main: time 2019-11-26_18:18:15 on domain   1:    3.80303 elapsed seconds
Timing for main: time 2019-11-26_18:18:30 on domain   1:    3.80154 elapsed seconds
Timing for main: time 2019-11-26_18:18:45 on domain   1:    3.80284 elapsed seconds
Timing for main: time 2019-11-26_18:19:00 on domain   1:    3.80063 elapsed seconds
Timing for main: time 2019-11-26_18:19:15 on domain   1:    3.80729 elapsed seconds
Timing for main: time 2019-11-26_18:19:30 on domain   1:    3.80543 elapsed seconds
Timing for main: time 2019-11-26_18:19:45 on domain   1:    3.80927 elapsed seconds
Timing for main: time 2019-11-26_18:20:00 on domain   1:    3.80663 elapsed seconds
Timing for main: time 2019-11-26_18:20:15 on domain   1:   30.58438 elapsed seconds
Timing for main: time 2019-11-26_18:20:30 on domain   1:    3.81429 elapsed seconds
Timing for main: time 2019-11-26_18:20:45 on domain   1:    3.81354 elapsed seconds
Timing for main: time 2019-11-26_18:21:00 on domain   1:    3.81571 elapsed seconds
Timing for main: time 2019-11-26_18:21:15 on domain   1:    3.82397 elapsed seconds
Timing for main: time 2019-11-26_18:21:30 on domain   1:    3.81950 elapsed seconds
Timing for main: time 2019-11-26_18:21:45 on domain   1:    3.82683 elapsed seconds
Timing for main: time 2019-11-26_18:22:00 on domain   1:    3.82534 elapsed seconds
Timing for main: time 2019-11-26_18:22:15 on domain   1:    3.83276 elapsed seconds
Timing for main: time 2019-11-26_18:22:30 on domain   1:    3.83514 elapsed seconds
Timing for main: time 2019-11-26_18:22:45 on domain   1:    3.83823 elapsed seconds
Timing for main: time 2019-11-26_18:23:00 on domain   1:    3.83892 elapsed seconds
Timing for main: time 2019-11-26_18:23:15 on domain   1:    3.84127 elapsed seconds
Timing for main: time 2019-11-26_18:23:30 on domain   1:    3.84300 elapsed seconds
Timing for main: time 2019-11-26_18:23:45 on domain   1:    3.85114 elapsed seconds
Timing for main: time 2019-11-26_18:24:00 on domain   1:    3.85051 elapsed seconds
Timing for main: time 2019-11-26_18:24:15 on domain   1:    3.85263 elapsed seconds
Timing for main: time 2019-11-26_18:24:30 on domain   1:    3.85577 elapsed seconds
Timing for main: time 2019-11-26_18:24:45 on domain   1:    3.85630 elapsed seconds
Timing for main: time 2019-11-26_18:25:00 on domain   1:    3.85725 elapsed seconds
Timing for main: time 2019-11-26_18:25:15 on domain   1:    3.86517 elapsed seconds
Timing for main: time 2019-11-26_18:25:30 on domain   1:    3.86163 elapsed seconds
Timing for main: time 2019-11-26_18:25:45 on domain   1:    3.86647 elapsed seconds
Timing for main: time 2019-11-26_18:26:00 on domain   1:    3.86610 elapsed seconds
Timing for main: time 2019-11-26_18:26:15 on domain   1:    3.86764 elapsed seconds
Timing for main: time 2019-11-26_18:26:30 on domain   1:    3.86948 elapsed seconds
Timing for main: time 2019-11-26_18:26:45 on domain   1:    3.87721 elapsed seconds
Timing for main: time 2019-11-26_18:27:00 on domain   1:    3.87285 elapsed seconds
Timing for main: time 2019-11-26_18:27:15 on domain   1:    3.87334 elapsed seconds
Timing for main: time 2019-11-26_18:27:30 on domain   1:    3.87690 elapsed seconds
Timing for main: time 2019-11-26_18:27:45 on domain   1:    3.88108 elapsed seconds
Timing for main: time 2019-11-26_18:28:00 on domain   1:    3.87927 elapsed seconds
Timing for main: time 2019-11-26_18:28:15 on domain   1:    3.88300 elapsed seconds
Timing for main: time 2019-11-26_18:28:30 on domain   1:    3.88433 elapsed seconds
Timing for main: time 2019-11-26_18:28:45 on domain   1:    3.88674 elapsed seconds
Timing for main: time 2019-11-26_18:29:00 on domain   1:    3.89012 elapsed seconds
Timing for main: time 2019-11-26_18:29:15 on domain   1:    3.89395 elapsed seconds
Timing for main: time 2019-11-26_18:29:30 on domain   1:    3.89418 elapsed seconds
Timing for main: time 2019-11-26_18:29:45 on domain   1:    3.89330 elapsed seconds
Timing for main: time 2019-11-26_18:30:00 on domain   1:    3.89722 elapsed seconds
Timing for main: time 2019-11-26_18:30:15 on domain   1:   31.67293 elapsed seconds
Timing for main: time 2019-11-26_18:30:30 on domain   1:    3.90657 elapsed seconds
Timing for main: time 2019-11-26_18:30:45 on domain   1:    3.91043 elapsed seconds
Timing for main: time 2019-11-26_18:31:00 on domain   1:    3.91763 elapsed seconds
Timing for main: time 2019-11-26_18:31:15 on domain   1:    3.91727 elapsed seconds
Timing for main: time 2019-11-26_18:31:30 on domain   1:    3.91500 elapsed seconds
Timing for main: time 2019-11-26_18:31:45 on domain   1:    3.92410 elapsed seconds
Timing for main: time 2019-11-26_18:32:00 on domain   1:    3.91697 elapsed seconds
Timing for main: time 2019-11-26_18:32:15 on domain   1:    3.92221 elapsed seconds
Timing for main: time 2019-11-26_18:32:30 on domain   1:    3.91711 elapsed seconds
Timing for main: time 2019-11-26_18:32:45 on domain   1:    3.92761 elapsed seconds
Timing for main: time 2019-11-26_18:33:00 on domain   1:    3.92011 elapsed seconds
Timing for main: time 2019-11-26_18:33:15 on domain   1:    3.93167 elapsed seconds
Timing for main: time 2019-11-26_18:33:30 on domain   1:    3.92296 elapsed seconds
Timing for main: time 2019-11-26_18:33:45 on domain   1:    3.93489 elapsed seconds
Timing for main: time 2019-11-26_18:34:00 on domain   1:    3.92495 elapsed seconds
Timing for main: time 2019-11-26_18:34:15 on domain   1:    3.93855 elapsed seconds
Timing for main: time 2019-11-26_18:34:30 on domain   1:    3.92982 elapsed seconds
Timing for main: time 2019-11-26_18:34:45 on domain   1:    3.93611 elapsed seconds
Timing for main: time 2019-11-26_18:35:00 on domain   1:    3.93051 elapsed seconds
Timing for main: time 2019-11-26_18:35:15 on domain   1:    3.94188 elapsed seconds
Timing for main: time 2019-11-26_18:35:30 on domain   1:    3.93535 elapsed seconds
Timing for main: time 2019-11-26_18:35:45 on domain   1:    3.94079 elapsed seconds
Timing for main: time 2019-11-26_18:36:00 on domain   1:    3.93772 elapsed seconds
Timing for main: time 2019-11-26_18:36:15 on domain   1:    3.94601 elapsed seconds
Timing for main: time 2019-11-26_18:36:30 on domain   1:    3.94088 elapsed seconds
Timing for main: time 2019-11-26_18:36:45 on domain   1:    3.94787 elapsed seconds
Timing for main: time 2019-11-26_18:37:00 on domain   1:    3.94152 elapsed seconds
Timing for main: time 2019-11-26_18:37:15 on domain   1:    3.95363 elapsed seconds
Timing for main: time 2019-11-26_18:37:30 on domain   1:    3.94823 elapsed seconds
Timing for main: time 2019-11-26_18:37:45 on domain   1:    3.95691 elapsed seconds
Timing for main: time 2019-11-26_18:38:00 on domain   1:    3.94602 elapsed seconds
Timing for main: time 2019-11-26_18:38:15 on domain   1:    3.96125 elapsed seconds
Timing for main: time 2019-11-26_18:38:30 on domain   1:    3.95173 elapsed seconds
Timing for main: time 2019-11-26_18:38:45 on domain   1:    3.95887 elapsed seconds
Timing for main: time 2019-11-26_18:39:00 on domain   1:    3.95511 elapsed seconds
Timing for main: time 2019-11-26_18:39:15 on domain   1:    3.96361 elapsed seconds
Timing for main: time 2019-11-26_18:39:30 on domain   1:    3.95698 elapsed seconds
Timing for main: time 2019-11-26_18:39:45 on domain   1:    3.96644 elapsed seconds
Timing for main: time 2019-11-26_18:40:00 on domain   1:    3.95803 elapsed seconds
Timing for main: time 2019-11-26_18:40:15 on domain   1:   32.27491 elapsed seconds
Timing for main: time 2019-11-26_18:40:30 on domain   1:    3.95551 elapsed seconds
Timing for main: time 2019-11-26_18:40:45 on domain   1:    3.95753 elapsed seconds
Timing for main: time 2019-11-26_18:41:00 on domain   1:    3.95900 elapsed seconds
Timing for main: time 2019-11-26_18:41:15 on domain   1:    3.95604 elapsed seconds
Timing for main: time 2019-11-26_18:41:30 on domain   1:    3.96122 elapsed seconds
Timing for main: time 2019-11-26_18:41:45 on domain   1:    3.96141 elapsed seconds
Timing for main: time 2019-11-26_18:42:00 on domain   1:    3.96522 elapsed seconds
Timing for main: time 2019-11-26_18:42:15 on domain   1:    3.95968 elapsed seconds
Timing for main: time 2019-11-26_18:42:30 on domain   1:    3.96362 elapsed seconds
Timing for main: time 2019-11-26_18:42:45 on domain   1:    3.96775 elapsed seconds
Timing for main: time 2019-11-26_18:43:00 on domain   1:    3.96416 elapsed seconds
Timing for main: time 2019-11-26_18:43:15 on domain   1:    3.97185 elapsed seconds
Timing for main: time 2019-11-26_18:43:30 on domain   1:    3.97477 elapsed seconds
Timing for main: time 2019-11-26_18:43:45 on domain   1:    3.97065 elapsed seconds
Timing for main: time 2019-11-26_18:44:00 on domain   1:    3.97421 elapsed seconds
Timing for main: time 2019-11-26_18:44:15 on domain   1:    3.97259 elapsed seconds
Timing for main: time 2019-11-26_18:44:30 on domain   1:    3.97284 elapsed seconds
Timing for main: time 2019-11-26_18:44:45 on domain   1:    3.97185 elapsed seconds
Timing for main: time 2019-11-26_18:45:00 on domain   1:    3.97836 elapsed seconds
Timing for main: time 2019-11-26_18:45:15 on domain   1:    3.97935 elapsed seconds
Timing for main: time 2019-11-26_18:45:30 on domain   1:    3.97815 elapsed seconds
Timing for main: time 2019-11-26_18:45:45 on domain   1:    3.98305 elapsed seconds
Timing for main: time 2019-11-26_18:46:00 on domain   1:    3.98234 elapsed seconds
Timing for main: time 2019-11-26_18:46:15 on domain   1:    3.98512 elapsed seconds
Timing for main: time 2019-11-26_18:46:30 on domain   1:    3.98656 elapsed seconds
Timing for main: time 2019-11-26_18:46:45 on domain   1:    3.99236 elapsed seconds
Timing for main: time 2019-11-26_18:47:00 on domain   1:    3.99094 elapsed seconds
Timing for main: time 2019-11-26_18:47:15 on domain   1:    3.99507 elapsed seconds
Timing for main: time 2019-11-26_18:47:30 on domain   1:    3.99732 elapsed seconds
Timing for main: time 2019-11-26_18:47:45 on domain   1:    3.99297 elapsed seconds
Timing for main: time 2019-11-26_18:48:00 on domain   1:    3.99655 elapsed seconds
Timing for main: time 2019-11-26_18:48:15 on domain   1:    4.00023 elapsed seconds
Timing for main: time 2019-11-26_18:48:30 on domain   1:    4.00062 elapsed seconds
Timing for main: time 2019-11-26_18:48:45 on domain   1:    4.00009 elapsed seconds
Timing for main: time 2019-11-26_18:49:00 on domain   1:    4.00443 elapsed seconds
Timing for main: time 2019-11-26_18:49:15 on domain   1:    4.00571 elapsed seconds
Timing for main: time 2019-11-26_18:49:30 on domain   1:    4.00667 elapsed seconds
Timing for main: time 2019-11-26_18:49:45 on domain   1:    4.01126 elapsed seconds
Timing for main: time 2019-11-26_18:50:00 on domain   1:    4.00728 elapsed seconds
Timing for main: time 2019-11-26_18:50:15 on domain   1:   32.73639 elapsed seconds
Timing for main: time 2019-11-26_18:50:30 on domain   1:    4.01906 elapsed seconds
Timing for main: time 2019-11-26_18:50:45 on domain   1:    4.02321 elapsed seconds
Timing for main: time 2019-11-26_18:51:00 on domain   1:    4.02232 elapsed seconds
Timing for main: time 2019-11-26_18:51:15 on domain   1:    4.02205 elapsed seconds
Timing for main: time 2019-11-26_18:51:30 on domain   1:    4.02528 elapsed seconds
Timing for main: time 2019-11-26_18:51:45 on domain   1:    4.02368 elapsed seconds
Timing for main: time 2019-11-26_18:52:00 on domain   1:    4.02707 elapsed seconds
Timing for main: time 2019-11-26_18:52:15 on domain   1:    4.02926 elapsed seconds
Timing for main: time 2019-11-26_18:52:30 on domain   1:    4.03142 elapsed seconds
Timing for main: time 2019-11-26_18:52:45 on domain   1:    4.03711 elapsed seconds
Timing for main: time 2019-11-26_18:53:00 on domain   1:    4.03293 elapsed seconds
Timing for main: time 2019-11-26_18:53:15 on domain   1:    4.03209 elapsed seconds
Timing for main: time 2019-11-26_18:53:30 on domain   1:    4.04085 elapsed seconds
Timing for main: time 2019-11-26_18:53:45 on domain   1:    4.04038 elapsed seconds
Timing for main: time 2019-11-26_18:54:00 on domain   1:    4.03899 elapsed seconds
Timing for main: time 2019-11-26_18:54:15 on domain   1:    4.07833 elapsed seconds
Timing for main: time 2019-11-26_18:54:30 on domain   1:    4.04271 elapsed seconds
Timing for main: time 2019-11-26_18:54:45 on domain   1:    4.04682 elapsed seconds
Timing for main: time 2019-11-26_18:55:00 on domain   1:    4.04425 elapsed seconds
Timing for main: time 2019-11-26_18:55:15 on domain   1:    4.04976 elapsed seconds
Timing for main: time 2019-11-26_18:55:30 on domain   1:    4.04765 elapsed seconds
Timing for main: time 2019-11-26_18:55:45 on domain   1:    4.04702 elapsed seconds
Timing for main: time 2019-11-26_18:56:00 on domain   1:    4.05661 elapsed seconds
Timing for main: time 2019-11-26_18:56:15 on domain   1:    4.05606 elapsed seconds
Timing for main: time 2019-11-26_18:56:30 on domain   1:    4.05887 elapsed seconds
Timing for main: time 2019-11-26_18:56:45 on domain   1:    4.05846 elapsed seconds
Timing for main: time 2019-11-26_18:57:00 on domain   1:    4.05662 elapsed seconds
Timing for main: time 2019-11-26_18:57:15 on domain   1:    4.08840 elapsed seconds
Timing for main: time 2019-11-26_18:57:30 on domain   1:    4.05799 elapsed seconds
Timing for main: time 2019-11-26_18:57:45 on domain   1:    4.06176 elapsed seconds
Timing for main: time 2019-11-26_18:58:00 on domain   1:    4.09605 elapsed seconds
Timing for main: time 2019-11-26_18:58:15 on domain   1:    4.09417 elapsed seconds
Timing for main: time 2019-11-26_18:58:30 on domain   1:    4.06249 elapsed seconds
Timing for main: time 2019-11-26_18:58:45 on domain   1:    4.07082 elapsed seconds
Timing for main: time 2019-11-26_18:59:00 on domain   1:    4.07074 elapsed seconds
Timing for main: time 2019-11-26_18:59:15 on domain   1:    4.07243 elapsed seconds
Timing for main: time 2019-11-26_18:59:30 on domain   1:    4.06999 elapsed seconds
Timing for main: time 2019-11-26_18:59:45 on domain   1:    4.07412 elapsed seconds
Timing for main: time 2019-11-26_19:00:00 on domain   1:    4.07558 elapsed seconds
 mediation_integrate.G        1249 DATASET=HISTORY
 mediation_integrate.G        1250  grid%id            1  grid%oid            2
Timing for Writing wrfout_d01_2019-11-26_19:00:00 for domain        1:    6.20962 elapsed seconds
Timing for main: time 2019-11-26_19:00:15 on domain   1:   39.05576 elapsed seconds
Timing for main: time 2019-11-26_19:00:30 on domain   1:    4.06887 elapsed seconds
Timing for main: time 2019-11-26_19:00:45 on domain   1:    4.07179 elapsed seconds
Timing for main: time 2019-11-26_19:01:00 on domain   1:    4.06816 elapsed seconds
Timing for main: time 2019-11-26_19:01:15 on domain   1:    4.07260 elapsed seconds
Timing for main: time 2019-11-26_19:01:30 on domain   1:    4.07111 elapsed seconds
Timing for main: time 2019-11-26_19:01:45 on domain   1:    4.07606 elapsed seconds
Timing for main: time 2019-11-26_19:02:00 on domain   1:    4.10859 elapsed seconds
Timing for main: time 2019-11-26_19:02:15 on domain   1:    4.07521 elapsed seconds
Timing for main: time 2019-11-26_19:02:30 on domain   1:    4.07622 elapsed seconds
Timing for main: time 2019-11-26_19:02:45 on domain   1:    4.09243 elapsed seconds
Timing for main: time 2019-11-26_19:03:00 on domain   1:    4.08249 elapsed seconds
Timing for main: time 2019-11-26_19:03:15 on domain   1:    4.08467 elapsed seconds
Timing for main: time 2019-11-26_19:03:30 on domain   1:    4.08011 elapsed seconds
Timing for main: time 2019-11-26_19:03:45 on domain   1:    4.08633 elapsed seconds
Timing for main: time 2019-11-26_19:04:00 on domain   1:    4.11691 elapsed seconds
Timing for main: time 2019-11-26_19:04:15 on domain   1:    4.09008 elapsed seconds
Timing for main: time 2019-11-26_19:04:30 on domain   1:    4.11796 elapsed seconds
Timing for main: time 2019-11-26_19:04:45 on domain   1:    4.12914 elapsed seconds
Timing for main: time 2019-11-26_19:05:00 on domain   1:    4.12315 elapsed seconds
Timing for main: time 2019-11-26_19:05:15 on domain   1:    4.09463 elapsed seconds
Timing for main: time 2019-11-26_19:05:30 on domain   1:    4.09228 elapsed seconds
Timing for main: time 2019-11-26_19:05:45 on domain   1:    4.09409 elapsed seconds
Timing for main: time 2019-11-26_19:06:00 on domain   1:    4.09639 elapsed seconds
Timing for main: time 2019-11-26_19:06:15 on domain   1:    4.09607 elapsed seconds
Timing for main: time 2019-11-26_19:06:30 on domain   1:    4.13217 elapsed seconds
Timing for main: time 2019-11-26_19:06:45 on domain   1:    4.13063 elapsed seconds
Timing for main: time 2019-11-26_19:07:00 on domain   1:    4.09944 elapsed seconds
Timing for main: time 2019-11-26_19:07:15 on domain   1:    4.10225 elapsed seconds
Timing for main: time 2019-11-26_19:07:30 on domain   1:    4.13131 elapsed seconds
Timing for main: time 2019-11-26_19:07:45 on domain   1:    4.10336 elapsed seconds
Timing for main: time 2019-11-26_19:08:00 on domain   1:    4.10386 elapsed seconds
Timing for main: time 2019-11-26_19:08:15 on domain   1:    4.10472 elapsed seconds
Timing for main: time 2019-11-26_19:08:30 on domain   1:    4.10581 elapsed seconds
Timing for main: time 2019-11-26_19:08:45 on domain   1:    4.11040 elapsed seconds
Timing for main: time 2019-11-26_19:09:00 on domain   1:    4.10672 elapsed seconds
Timing for main: time 2019-11-26_19:09:15 on domain   1:    4.14001 elapsed seconds
Timing for main: time 2019-11-26_19:09:30 on domain   1:    4.11321 elapsed seconds
Timing for main: time 2019-11-26_19:09:45 on domain   1:    4.11174 elapsed seconds
Timing for main: time 2019-11-26_19:10:00 on domain   1:    4.11162 elapsed seconds
Timing for main: time 2019-11-26_19:10:15 on domain   1:   33.03344 elapsed seconds
Timing for main: time 2019-11-26_19:10:30 on domain   1:    4.11914 elapsed seconds
Timing for main: time 2019-11-26_19:10:45 on domain   1:    4.13260 elapsed seconds
Timing for main: time 2019-11-26_19:11:00 on domain   1:    4.13820 elapsed seconds
Timing for main: time 2019-11-26_19:11:15 on domain   1:    4.12495 elapsed seconds
Timing for main: time 2019-11-26_19:11:30 on domain   1:    4.13262 elapsed seconds
Timing for main: time 2019-11-26_19:11:45 on domain   1:    4.17547 elapsed seconds
Timing for main: time 2019-11-26_19:12:00 on domain   1:    4.17651 elapsed seconds
Timing for main: time 2019-11-26_19:12:15 on domain   1:    4.14313 elapsed seconds
Timing for main: time 2019-11-26_19:12:30 on domain   1:    4.14491 elapsed seconds
Timing for main: time 2019-11-26_19:12:45 on domain   1:    4.13991 elapsed seconds
Timing for main: time 2019-11-26_19:13:00 on domain   1:    4.16862 elapsed seconds
Timing for main: time 2019-11-26_19:13:15 on domain   1:    4.18303 elapsed seconds
Timing for main: time 2019-11-26_19:13:30 on domain   1:    4.13095 elapsed seconds
Timing for main: time 2019-11-26_19:13:45 on domain   1:    4.13572 elapsed seconds
Timing for main: time 2019-11-26_19:14:00 on domain   1:    4.17411 elapsed seconds
Timing for main: time 2019-11-26_19:14:15 on domain   1:    4.13543 elapsed seconds
Timing for main: time 2019-11-26_19:14:30 on domain   1:    4.14530 elapsed seconds
Timing for main: time 2019-11-26_19:14:45 on domain   1:    4.14838 elapsed seconds
Timing for main: time 2019-11-26_19:15:00 on domain   1:    4.14825 elapsed seconds
Timing for main: time 2019-11-26_19:15:15 on domain   1:    4.15672 elapsed seconds
Timing for main: time 2019-11-26_19:15:30 on domain   1:    4.15970 elapsed seconds
Timing for main: time 2019-11-26_19:15:45 on domain   1:    4.14285 elapsed seconds
Timing for main: time 2019-11-26_19:16:00 on domain   1:    4.14840 elapsed seconds
Timing for main: time 2019-11-26_19:16:15 on domain   1:    4.15281 elapsed seconds
Timing for main: time 2019-11-26_19:16:30 on domain   1:    4.16365 elapsed seconds
Timing for main: time 2019-11-26_19:16:45 on domain   1:    4.15362 elapsed seconds
Timing for main: time 2019-11-26_19:17:00 on domain   1:    4.15632 elapsed seconds
Timing for main: time 2019-11-26_19:17:15 on domain   1:    4.15537 elapsed seconds
Timing for main: time 2019-11-26_19:17:30 on domain   1:    4.16951 elapsed seconds
Timing for main: time 2019-11-26_19:17:45 on domain   1:    4.15063 elapsed seconds
Timing for main: time 2019-11-26_19:18:00 on domain   1:    4.15610 elapsed seconds
Timing for main: time 2019-11-26_19:18:15 on domain   1:    4.16394 elapsed seconds
Timing for main: time 2019-11-26_19:18:30 on domain   1:    4.15785 elapsed seconds
Timing for main: time 2019-11-26_19:18:45 on domain   1:    4.19628 elapsed seconds
Timing for main: time 2019-11-26_19:19:00 on domain   1:    4.19607 elapsed seconds
Timing for main: time 2019-11-26_19:19:15 on domain   1:    4.16145 elapsed seconds
Timing for main: time 2019-11-26_19:19:30 on domain   1:    4.17319 elapsed seconds
Timing for main: time 2019-11-26_19:19:45 on domain   1:    4.17798 elapsed seconds
Timing for main: time 2019-11-26_19:20:00 on domain   1:    4.15620 elapsed seconds
Timing for main: time 2019-11-26_19:20:15 on domain   1:   33.19216 elapsed seconds
Timing for main: time 2019-11-26_19:20:30 on domain   1:    4.16005 elapsed seconds
Timing for main: time 2019-11-26_19:20:45 on domain   1:    4.15584 elapsed seconds
Timing for main: time 2019-11-26_19:21:00 on domain   1:    4.16229 elapsed seconds
Timing for main: time 2019-11-26_19:21:15 on domain   1:    4.17130 elapsed seconds
Timing for main: time 2019-11-26_19:21:30 on domain   1:    4.21561 elapsed seconds
Timing for main: time 2019-11-26_19:21:45 on domain   1:    4.19312 elapsed seconds
Timing for main: time 2019-11-26_19:22:00 on domain   1:    4.19160 elapsed seconds
Timing for main: time 2019-11-26_19:22:15 on domain   1:    4.16384 elapsed seconds
Timing for main: time 2019-11-26_19:22:30 on domain   1:    4.16285 elapsed seconds
Timing for main: time 2019-11-26_19:22:45 on domain   1:    4.16505 elapsed seconds
Timing for main: time 2019-11-26_19:23:00 on domain   1:    4.16473 elapsed seconds
Timing for main: time 2019-11-26_19:23:15 on domain   1:    4.16759 elapsed seconds
Timing for main: time 2019-11-26_19:23:30 on domain   1:    4.16509 elapsed seconds
Timing for main: time 2019-11-26_19:23:45 on domain   1:    4.16977 elapsed seconds
Timing for main: time 2019-11-26_19:24:00 on domain   1:    4.17001 elapsed seconds
Timing for main: time 2019-11-26_19:24:15 on domain   1:    4.16822 elapsed seconds
Timing for main: time 2019-11-26_19:24:30 on domain   1:    4.16889 elapsed seconds
Timing for main: time 2019-11-26_19:24:45 on domain   1:    4.17356 elapsed seconds
Timing for main: time 2019-11-26_19:25:00 on domain   1:    4.17005 elapsed seconds
Timing for main: time 2019-11-26_19:25:15 on domain   1:    4.17192 elapsed seconds
Timing for main: time 2019-11-26_19:25:30 on domain   1:    4.17097 elapsed seconds
Timing for main: time 2019-11-26_19:25:45 on domain   1:    4.17403 elapsed seconds
Timing for main: time 2019-11-26_19:26:00 on domain   1:    4.17396 elapsed seconds
Timing for main: time 2019-11-26_19:26:15 on domain   1:    4.20303 elapsed seconds
Timing for main: time 2019-11-26_19:26:30 on domain   1:    4.16993 elapsed seconds
Timing for main: time 2019-11-26_19:26:45 on domain   1:    4.17550 elapsed seconds
Timing for main: time 2019-11-26_19:27:00 on domain   1:    4.17431 elapsed seconds
Timing for main: time 2019-11-26_19:27:15 on domain   1:    4.17800 elapsed seconds
Timing for main: time 2019-11-26_19:27:30 on domain   1:    4.17531 elapsed seconds
Timing for main: time 2019-11-26_19:27:45 on domain   1:    4.17454 elapsed seconds
Timing for main: time 2019-11-26_19:28:00 on domain   1:    4.17607 elapsed seconds
Timing for main: time 2019-11-26_19:28:15 on domain   1:    4.17612 elapsed seconds
Timing for main: time 2019-11-26_19:28:30 on domain   1:    4.21286 elapsed seconds
Timing for main: time 2019-11-26_19:28:45 on domain   1:    4.17949 elapsed seconds
Timing for main: time 2019-11-26_19:29:00 on domain   1:    4.21418 elapsed seconds
Timing for main: time 2019-11-26_19:29:15 on domain   1:    4.21164 elapsed seconds
Timing for main: time 2019-11-26_19:29:30 on domain   1:    4.21129 elapsed seconds
Timing for main: time 2019-11-26_19:29:45 on domain   1:    4.21253 elapsed seconds
Timing for main: time 2019-11-26_19:30:00 on domain   1:    4.17924 elapsed seconds
Timing for main: time 2019-11-26_19:30:15 on domain   1:   33.26241 elapsed seconds
Timing for main: time 2019-11-26_19:30:30 on domain   1:    4.21317 elapsed seconds
Timing for main: time 2019-11-26_19:30:45 on domain   1:    4.18181 elapsed seconds
Timing for main: time 2019-11-26_19:31:00 on domain   1:    4.18159 elapsed seconds
Timing for main: time 2019-11-26_19:31:15 on domain   1:    4.21468 elapsed seconds
Timing for main: time 2019-11-26_19:31:30 on domain   1:    4.18285 elapsed seconds
Timing for main: time 2019-11-26_19:31:45 on domain   1:    4.18188 elapsed seconds
Timing for main: time 2019-11-26_19:32:00 on domain   1:    4.18605 elapsed seconds
Timing for main: time 2019-11-26_19:32:15 on domain   1:    4.18740 elapsed seconds
Timing for main: time 2019-11-26_19:32:30 on domain   1:    4.18740 elapsed seconds
Timing for main: time 2019-11-26_19:32:45 on domain   1:    4.21942 elapsed seconds
Timing for main: time 2019-11-26_19:33:00 on domain   1:    4.18560 elapsed seconds
Timing for main: time 2019-11-26_19:33:15 on domain   1:    4.19350 elapsed seconds
Timing for main: time 2019-11-26_19:33:30 on domain   1:    4.21459 elapsed seconds
Timing for main: time 2019-11-26_19:33:45 on domain   1:    4.21954 elapsed seconds
Timing for main: time 2019-11-26_19:34:00 on domain   1:    4.21861 elapsed seconds
Timing for main: time 2019-11-26_19:34:15 on domain   1:    4.18786 elapsed seconds
Timing for main: time 2019-11-26_19:34:30 on domain   1:    4.19118 elapsed seconds
Timing for main: time 2019-11-26_19:34:45 on domain   1:    4.21816 elapsed seconds
Timing for main: time 2019-11-26_19:35:00 on domain   1:    4.21709 elapsed seconds
Timing for main: time 2019-11-26_19:35:15 on domain   1:    4.18818 elapsed seconds
Timing for main: time 2019-11-26_19:35:30 on domain   1:    4.21611 elapsed seconds
Timing for main: time 2019-11-26_19:35:45 on domain   1:    4.19215 elapsed seconds
Timing for main: time 2019-11-26_19:36:00 on domain   1:    4.22610 elapsed seconds
Timing for main: time 2019-11-26_19:36:15 on domain   1:    4.23048 elapsed seconds
Timing for main: time 2019-11-26_19:36:30 on domain   1:    4.22344 elapsed seconds
Timing for main: time 2019-11-26_19:36:45 on domain   1:    4.22646 elapsed seconds
Timing for main: time 2019-11-26_19:37:00 on domain   1:    4.19711 elapsed seconds
Timing for main: time 2019-11-26_19:37:15 on domain   1:    4.22277 elapsed seconds
Timing for main: time 2019-11-26_19:37:30 on domain   1:    4.21944 elapsed seconds
Timing for main: time 2019-11-26_19:37:45 on domain   1:    4.21883 elapsed seconds
Timing for main: time 2019-11-26_19:38:00 on domain   1:    4.23728 elapsed seconds
Timing for main: time 2019-11-26_19:38:15 on domain   1:    4.22179 elapsed seconds
Timing for main: time 2019-11-26_19:38:30 on domain   1:    4.22184 elapsed seconds
Timing for main: time 2019-11-26_19:38:45 on domain   1:    4.22033 elapsed seconds
Timing for main: time 2019-11-26_19:39:00 on domain   1:    4.22866 elapsed seconds
Timing for main: time 2019-11-26_19:39:15 on domain   1:    4.22975 elapsed seconds
Timing for main: time 2019-11-26_19:39:30 on domain   1:    4.19900 elapsed seconds
Timing for main: time 2019-11-26_19:39:45 on domain   1:    4.19753 elapsed seconds
Timing for main: time 2019-11-26_19:40:00 on domain   1:    4.22793 elapsed seconds
Timing for main: time 2019-11-26_19:40:15 on domain   1:   33.44142 elapsed seconds
Timing for main: time 2019-11-26_19:40:30 on domain   1:    4.22904 elapsed seconds
Timing for main: time 2019-11-26_19:40:45 on domain   1:    4.23179 elapsed seconds
Timing for main: time 2019-11-26_19:41:00 on domain   1:    4.23320 elapsed seconds
Timing for main: time 2019-11-26_19:41:15 on domain   1:    4.25834 elapsed seconds
Timing for main: time 2019-11-26_19:41:30 on domain   1:    4.19869 elapsed seconds
Timing for main: time 2019-11-26_19:41:45 on domain   1:    4.23018 elapsed seconds
Timing for main: time 2019-11-26_19:42:00 on domain   1:    4.25794 elapsed seconds
Timing for main: time 2019-11-26_19:42:15 on domain   1:    4.23754 elapsed seconds
Timing for main: time 2019-11-26_19:42:30 on domain   1:    4.20391 elapsed seconds
Timing for main: time 2019-11-26_19:42:45 on domain   1:    4.26317 elapsed seconds
Timing for main: time 2019-11-26_19:43:00 on domain   1:    4.22916 elapsed seconds
Timing for main: time 2019-11-26_19:43:15 on domain   1:    4.20576 elapsed seconds
Timing for main: time 2019-11-26_19:43:30 on domain   1:    4.26007 elapsed seconds
Timing for main: time 2019-11-26_19:43:45 on domain   1:    4.23671 elapsed seconds
Timing for main: time 2019-11-26_19:44:00 on domain   1:    4.20257 elapsed seconds
Timing for main: time 2019-11-26_19:44:15 on domain   1:    4.26256 elapsed seconds
Timing for main: time 2019-11-26_19:44:30 on domain   1:    4.23757 elapsed seconds
Timing for main: time 2019-11-26_19:44:45 on domain   1:    4.23878 elapsed seconds
Timing for main: time 2019-11-26_19:45:00 on domain   1:    4.26213 elapsed seconds
Timing for main: time 2019-11-26_19:45:15 on domain   1:    4.23320 elapsed seconds
Timing for main: time 2019-11-26_19:45:30 on domain   1:    4.23349 elapsed seconds
Timing for main: time 2019-11-26_19:45:45 on domain   1:    4.26201 elapsed seconds
Timing for main: time 2019-11-26_19:46:00 on domain   1:    4.24168 elapsed seconds
Timing for main: time 2019-11-26_19:46:15 on domain   1:    4.23764 elapsed seconds
Timing for main: time 2019-11-26_19:46:30 on domain   1:    4.26097 elapsed seconds
Timing for main: time 2019-11-26_19:46:45 on domain   1:    4.23653 elapsed seconds
Timing for main: time 2019-11-26_19:47:00 on domain   1:    4.20750 elapsed seconds
Timing for main: time 2019-11-26_19:47:15 on domain   1:    4.26212 elapsed seconds
Timing for main: time 2019-11-26_19:47:30 on domain   1:    4.23975 elapsed seconds
Timing for main: time 2019-11-26_19:47:45 on domain   1:    4.20719 elapsed seconds
Timing for main: time 2019-11-26_19:48:00 on domain   1:    4.26143 elapsed seconds
Timing for main: time 2019-11-26_19:48:15 on domain   1:    4.23680 elapsed seconds
Timing for main: time 2019-11-26_19:48:30 on domain   1:    4.24092 elapsed seconds
Timing for main: time 2019-11-26_19:48:45 on domain   1:    4.26348 elapsed seconds
Timing for main: time 2019-11-26_19:49:00 on domain   1:    4.24064 elapsed seconds
Timing for main: time 2019-11-26_19:49:15 on domain   1:    4.21224 elapsed seconds
Timing for main: time 2019-11-26_19:49:30 on domain   1:    4.26714 elapsed seconds
Timing for main: time 2019-11-26_19:49:45 on domain   1:    4.23595 elapsed seconds
Timing for main: time 2019-11-26_19:50:00 on domain   1:    4.23441 elapsed seconds
Timing for main: time 2019-11-26_19:50:15 on domain   1:   33.42355 elapsed seconds
Timing for main: time 2019-11-26_19:50:30 on domain   1:    4.23507 elapsed seconds
Timing for main: time 2019-11-26_19:50:45 on domain   1:    4.21359 elapsed seconds
Timing for main: time 2019-11-26_19:51:00 on domain   1:    4.24038 elapsed seconds
Timing for main: time 2019-11-26_19:51:15 on domain   1:    4.24058 elapsed seconds
Timing for main: time 2019-11-26_19:51:30 on domain   1:    4.25002 elapsed seconds
Timing for main: time 2019-11-26_19:51:45 on domain   1:    4.24189 elapsed seconds
Timing for main: time 2019-11-26_19:52:00 on domain   1:    4.23864 elapsed seconds
Timing for main: time 2019-11-26_19:52:15 on domain   1:    4.24805 elapsed seconds
Timing for main: time 2019-11-26_19:52:30 on domain   1:    4.24806 elapsed seconds
Timing for main: time 2019-11-26_19:52:45 on domain   1:    4.21857 elapsed seconds
Timing for main: time 2019-11-26_19:53:00 on domain   1:    4.24051 elapsed seconds
Timing for main: time 2019-11-26_19:53:15 on domain   1:    4.25638 elapsed seconds
Timing for main: time 2019-11-26_19:53:30 on domain   1:    4.24599 elapsed seconds
Timing for main: time 2019-11-26_19:53:45 on domain   1:    4.22134 elapsed seconds
Timing for main: time 2019-11-26_19:54:00 on domain   1:    4.22290 elapsed seconds
Timing for main: time 2019-11-26_19:54:15 on domain   1:    4.25743 elapsed seconds
Timing for main: time 2019-11-26_19:54:30 on domain   1:    4.25864 elapsed seconds
Timing for main: time 2019-11-26_19:54:45 on domain   1:    4.24658 elapsed seconds
Timing for main: time 2019-11-26_19:55:00 on domain   1:    4.21664 elapsed seconds
Timing for main: time 2019-11-26_19:55:15 on domain   1:    4.24928 elapsed seconds
Timing for main: time 2019-11-26_19:55:30 on domain   1:    4.21761 elapsed seconds
Timing for main: time 2019-11-26_19:55:45 on domain   1:    4.21836 elapsed seconds
Timing for main: time 2019-11-26_19:56:00 on domain   1:    4.24474 elapsed seconds
Timing for main: time 2019-11-26_19:56:15 on domain   1:    4.24885 elapsed seconds
Timing for main: time 2019-11-26_19:56:30 on domain   1:    4.24453 elapsed seconds
Timing for main: time 2019-11-26_19:56:45 on domain   1:    4.24810 elapsed seconds
Timing for main: time 2019-11-26_19:57:00 on domain   1:    4.24587 elapsed seconds
Timing for main: time 2019-11-26_19:57:15 on domain   1:    4.25066 elapsed seconds
Timing for main: time 2019-11-26_19:57:30 on domain   1:    4.25158 elapsed seconds
Timing for main: time 2019-11-26_19:57:45 on domain   1:    4.24736 elapsed seconds
Timing for main: time 2019-11-26_19:58:00 on domain   1:    4.24916 elapsed seconds
Timing for main: time 2019-11-26_19:58:15 on domain   1:    4.25125 elapsed seconds
Timing for main: time 2019-11-26_19:58:30 on domain   1:    4.25283 elapsed seconds
Timing for main: time 2019-11-26_19:58:45 on domain   1:    4.22490 elapsed seconds
Timing for main: time 2019-11-26_19:59:00 on domain   1:    4.25065 elapsed seconds
Timing for main: time 2019-11-26_19:59:15 on domain   1:    4.25461 elapsed seconds
Timing for main: time 2019-11-26_19:59:30 on domain   1:    4.22049 elapsed seconds
Timing for main: time 2019-11-26_19:59:45 on domain   1:    4.22617 elapsed seconds
Timing for main: time 2019-11-26_20:00:00 on domain   1:    4.22476 elapsed seconds
 mediation_integrate.G        1249 DATASET=HISTORY
 mediation_integrate.G        1250  grid%id            1  grid%oid            2
Timing for Writing wrfout_d01_2019-11-26_20:00:00 for domain        1:    6.39308 elapsed seconds
Timing for main: time 2019-11-26_20:00:15 on domain   1:   39.85410 elapsed seconds
Timing for main: time 2019-11-26_20:00:30 on domain   1:    4.27035 elapsed seconds
Timing for main: time 2019-11-26_20:00:45 on domain   1:    4.27905 elapsed seconds
Timing for main: time 2019-11-26_20:01:00 on domain   1:    4.26820 elapsed seconds
Timing for main: time 2019-11-26_20:01:15 on domain   1:    4.26932 elapsed seconds
Timing for main: time 2019-11-26_20:01:30 on domain   1:    4.24466 elapsed seconds
Timing for main: time 2019-11-26_20:01:45 on domain   1:    4.23162 elapsed seconds
Timing for main: time 2019-11-26_20:02:00 on domain   1:    4.24357 elapsed seconds
Timing for main: time 2019-11-26_20:02:15 on domain   1:    4.23392 elapsed seconds
Timing for main: time 2019-11-26_20:02:30 on domain   1:    4.27036 elapsed seconds
Timing for main: time 2019-11-26_20:02:45 on domain   1:    4.23188 elapsed seconds
Timing for main: time 2019-11-26_20:03:00 on domain   1:    4.24338 elapsed seconds
Timing for main: time 2019-11-26_20:03:15 on domain   1:    4.23073 elapsed seconds
Timing for main: time 2019-11-26_20:03:30 on domain   1:    4.24821 elapsed seconds
Timing for main: time 2019-11-26_20:03:45 on domain   1:    4.26110 elapsed seconds
Timing for main: time 2019-11-26_20:04:00 on domain   1:    4.27824 elapsed seconds
Timing for main: time 2019-11-26_20:04:15 on domain   1:    4.23630 elapsed seconds
Timing for main: time 2019-11-26_20:04:30 on domain   1:    4.27243 elapsed seconds
Timing for main: time 2019-11-26_20:04:45 on domain   1:    4.26272 elapsed seconds
Timing for main: time 2019-11-26_20:05:00 on domain   1:    4.24394 elapsed seconds
Timing for main: time 2019-11-26_20:05:15 on domain   1:    4.23577 elapsed seconds
Timing for main: time 2019-11-26_20:05:30 on domain   1:    4.24864 elapsed seconds
Timing for main: time 2019-11-26_20:05:45 on domain   1:    4.26526 elapsed seconds
Timing for main: time 2019-11-26_20:06:00 on domain   1:    4.24591 elapsed seconds
Timing for main: time 2019-11-26_20:06:15 on domain   1:    4.23742 elapsed seconds
Timing for main: time 2019-11-26_20:06:30 on domain   1:    4.27665 elapsed seconds
Timing for main: time 2019-11-26_20:06:45 on domain   1:    4.26029 elapsed seconds
Timing for main: time 2019-11-26_20:07:00 on domain   1:    4.27778 elapsed seconds
Timing for main: time 2019-11-26_20:07:15 on domain   1:    4.26537 elapsed seconds
Timing for main: time 2019-11-26_20:07:30 on domain   1:    4.28217 elapsed seconds
Timing for main: time 2019-11-26_20:07:45 on domain   1:    4.26630 elapsed seconds
Timing for main: time 2019-11-26_20:08:00 on domain   1:    4.27443 elapsed seconds
Timing for main: time 2019-11-26_20:08:15 on domain   1:    4.23573 elapsed seconds
Timing for main: time 2019-11-26_20:08:30 on domain   1:    4.27764 elapsed seconds
Timing for main: time 2019-11-26_20:08:45 on domain   1:    4.23650 elapsed seconds
Timing for main: time 2019-11-26_20:09:00 on domain   1:    4.24687 elapsed seconds
Timing for main: time 2019-11-26_20:09:15 on domain   1:    4.26705 elapsed seconds
Timing for main: time 2019-11-26_20:09:30 on domain   1:    4.24809 elapsed seconds
Timing for main: time 2019-11-26_20:09:45 on domain   1:    4.23891 elapsed seconds
Timing for main: time 2019-11-26_20:10:00 on domain   1:    4.24740 elapsed seconds
Timing for main: time 2019-11-26_20:10:15 on domain   1:   33.44580 elapsed seconds
Timing for main: time 2019-11-26_20:10:30 on domain   1:    4.24200 elapsed seconds
Timing for main: time 2019-11-26_20:10:45 on domain   1:    4.27371 elapsed seconds
Timing for main: time 2019-11-26_20:11:00 on domain   1:    4.24164 elapsed seconds
Timing for main: time 2019-11-26_20:11:15 on domain   1:    4.27352 elapsed seconds
Timing for main: time 2019-11-26_20:11:30 on domain   1:    4.24196 elapsed seconds
Timing for main: time 2019-11-26_20:11:45 on domain   1:    4.27147 elapsed seconds
Timing for main: time 2019-11-26_20:12:00 on domain   1:    4.27203 elapsed seconds
Timing for main: time 2019-11-26_20:12:15 on domain   1:    4.26767 elapsed seconds
Timing for main: time 2019-11-26_20:12:30 on domain   1:    4.27041 elapsed seconds
Timing for main: time 2019-11-26_20:12:45 on domain   1:    4.27262 elapsed seconds
Timing for main: time 2019-11-26_20:13:00 on domain   1:    4.24111 elapsed seconds
Timing for main: time 2019-11-26_20:13:15 on domain   1:    4.24248 elapsed seconds
Timing for main: time 2019-11-26_20:13:30 on domain   1:    4.27212 elapsed seconds
Timing for main: time 2019-11-26_20:13:45 on domain   1:    4.26883 elapsed seconds
Timing for main: time 2019-11-26_20:14:00 on domain   1:    4.24485 elapsed seconds
Timing for main: time 2019-11-26_20:14:15 on domain   1:    4.24227 elapsed seconds
Timing for main: time 2019-11-26_20:14:30 on domain   1:    4.27362 elapsed seconds
Timing for main: time 2019-11-26_20:14:45 on domain   1:    4.24452 elapsed seconds
Timing for main: time 2019-11-26_20:15:00 on domain   1:    4.27139 elapsed seconds
Timing for main: time 2019-11-26_20:15:15 on domain   1:    4.24223 elapsed seconds
Timing for main: time 2019-11-26_20:15:30 on domain   1:    4.23978 elapsed seconds
Timing for main: time 2019-11-26_20:15:45 on domain   1:    4.24093 elapsed seconds
Timing for main: time 2019-11-26_20:16:00 on domain   1:    4.26677 elapsed seconds
Timing for main: time 2019-11-26_20:16:15 on domain   1:    4.26994 elapsed seconds
Timing for main: time 2019-11-26_20:16:30 on domain   1:    4.27045 elapsed seconds
Timing for main: time 2019-11-26_20:16:45 on domain   1:    4.23892 elapsed seconds
Timing for main: time 2019-11-26_20:17:00 on domain   1:    4.27184 elapsed seconds
Timing for main: time 2019-11-26_20:17:15 on domain   1:    4.26622 elapsed seconds
Timing for main: time 2019-11-26_20:17:30 on domain   1:    4.24323 elapsed seconds
Timing for main: time 2019-11-26_20:17:45 on domain   1:    4.24100 elapsed seconds
Timing for main: time 2019-11-26_20:18:00 on domain   1:    4.24141 elapsed seconds
Timing for main: time 2019-11-26_20:18:15 on domain   1:    4.26889 elapsed seconds
Timing for main: time 2019-11-26_20:18:30 on domain   1:    4.23825 elapsed seconds
Timing for main: time 2019-11-26_20:18:45 on domain   1:    4.24066 elapsed seconds
Timing for main: time 2019-11-26_20:19:00 on domain   1:    4.26700 elapsed seconds
Timing for main: time 2019-11-26_20:19:15 on domain   1:    4.26821 elapsed seconds
Timing for main: time 2019-11-26_20:19:30 on domain   1:    4.24094 elapsed seconds
Timing for main: time 2019-11-26_20:19:45 on domain   1:    4.25984 elapsed seconds
Timing for main: time 2019-11-26_20:20:00 on domain   1:    4.26838 elapsed seconds
Timing for main: time 2019-11-26_20:20:15 on domain   1:   33.36795 elapsed seconds
Timing for main: time 2019-11-26_20:20:30 on domain   1:    4.23008 elapsed seconds
Timing for main: time 2019-11-26_20:20:45 on domain   1:    4.26846 elapsed seconds
Timing for main: time 2019-11-26_20:21:00 on domain   1:    4.23033 elapsed seconds
Timing for main: time 2019-11-26_20:21:15 on domain   1:    4.26024 elapsed seconds
Timing for main: time 2019-11-26_20:21:30 on domain   1:    4.27021 elapsed seconds
Timing for main: time 2019-11-26_20:21:45 on domain   1:    4.23624 elapsed seconds
Timing for main: time 2019-11-26_20:22:00 on domain   1:    4.23821 elapsed seconds
Timing for main: time 2019-11-26_20:22:15 on domain   1:    4.23644 elapsed seconds
Timing for main: time 2019-11-26_20:22:30 on domain   1:    4.26430 elapsed seconds
Timing for main: time 2019-11-26_20:22:45 on domain   1:    4.23500 elapsed seconds
Timing for main: time 2019-11-26_20:23:00 on domain   1:    4.23912 elapsed seconds
Timing for main: time 2019-11-26_20:23:15 on domain   1:    4.23890 elapsed seconds
Timing for main: time 2019-11-26_20:23:30 on domain   1:    4.23753 elapsed seconds
Timing for main: time 2019-11-26_20:23:45 on domain   1:    4.26748 elapsed seconds
Timing for main: time 2019-11-26_20:24:00 on domain   1:    4.23890 elapsed seconds
Timing for main: time 2019-11-26_20:24:15 on domain   1:    4.23222 elapsed seconds
Timing for main: time 2019-11-26_20:24:30 on domain   1:    4.23782 elapsed seconds
Timing for main: time 2019-11-26_20:24:45 on domain   1:    4.23126 elapsed seconds
Timing for main: time 2019-11-26_20:25:00 on domain   1:    4.23247 elapsed seconds
Timing for main: time 2019-11-26_20:25:15 on domain   1:    4.23758 elapsed seconds
Timing for main: time 2019-11-26_20:25:30 on domain   1:    4.26443 elapsed seconds
Timing for main: time 2019-11-26_20:25:45 on domain   1:    4.23709 elapsed seconds
Timing for main: time 2019-11-26_20:26:00 on domain   1:    4.22884 elapsed seconds
Timing for main: time 2019-11-26_20:26:15 on domain   1:    4.26013 elapsed seconds
Timing for main: time 2019-11-26_20:26:30 on domain   1:    4.23011 elapsed seconds
Timing for main: time 2019-11-26_20:26:45 on domain   1:    4.23258 elapsed seconds
Timing for main: time 2019-11-26_20:27:00 on domain   1:    4.26077 elapsed seconds
Timing for main: time 2019-11-26_20:27:15 on domain   1:    4.23263 elapsed seconds
Timing for main: time 2019-11-26_20:27:30 on domain   1:    4.23059 elapsed seconds
Timing for main: time 2019-11-26_20:27:45 on domain   1:    4.25988 elapsed seconds
Timing for main: time 2019-11-26_20:28:00 on domain   1:    4.23134 elapsed seconds
Timing for main: time 2019-11-26_20:28:15 on domain   1:    4.23071 elapsed seconds
Timing for main: time 2019-11-26_20:28:30 on domain   1:    4.26286 elapsed seconds
Timing for main: time 2019-11-26_20:28:45 on domain   1:    4.23053 elapsed seconds
Timing for main: time 2019-11-26_20:29:00 on domain   1:    4.23115 elapsed seconds
Timing for main: time 2019-11-26_20:29:15 on domain   1:    4.22915 elapsed seconds
Timing for main: time 2019-11-26_20:29:30 on domain   1:    4.22929 elapsed seconds
Timing for main: time 2019-11-26_20:29:45 on domain   1:    4.22700 elapsed seconds
Timing for main: time 2019-11-26_20:30:00 on domain   1:    4.22898 elapsed seconds
Timing for main: time 2019-11-26_20:30:15 on domain   1:   33.22969 elapsed seconds
Timing for main: time 2019-11-26_20:30:30 on domain   1:    4.22297 elapsed seconds
Timing for main: time 2019-11-26_20:30:45 on domain   1:    4.22208 elapsed seconds
Timing for main: time 2019-11-26_20:31:00 on domain   1:    4.21837 elapsed seconds
Timing for main: time 2019-11-26_20:31:15 on domain   1:    4.21964 elapsed seconds
Timing for main: time 2019-11-26_20:31:30 on domain   1:    4.21885 elapsed seconds
Timing for main: time 2019-11-26_20:31:45 on domain   1:    4.21934 elapsed seconds
Timing for main: time 2019-11-26_20:32:00 on domain   1:    4.22026 elapsed seconds
Timing for main: time 2019-11-26_20:32:15 on domain   1:    4.21685 elapsed seconds
Timing for main: time 2019-11-26_20:32:30 on domain   1:    4.24572 elapsed seconds
Timing for main: time 2019-11-26_20:32:45 on domain   1:    4.21861 elapsed seconds
Timing for main: time 2019-11-26_20:33:00 on domain   1:    4.21697 elapsed seconds
Timing for main: time 2019-11-26_20:33:15 on domain   1:    4.24806 elapsed seconds
Timing for main: time 2019-11-26_20:33:30 on domain   1:    4.21568 elapsed seconds
Timing for main: time 2019-11-26_20:33:45 on domain   1:    4.21696 elapsed seconds
Timing for main: time 2019-11-26_20:34:00 on domain   1:    4.21763 elapsed seconds
Timing for main: time 2019-11-26_20:34:15 on domain   1:    4.21730 elapsed seconds
Timing for main: time 2019-11-26_20:34:30 on domain   1:    4.21445 elapsed seconds
Timing for main: time 2019-11-26_20:34:45 on domain   1:    4.21874 elapsed seconds
Timing for main: time 2019-11-26_20:35:00 on domain   1:    4.21523 elapsed seconds
Timing for main: time 2019-11-26_20:35:15 on domain   1:    4.21766 elapsed seconds
Timing for main: time 2019-11-26_20:35:30 on domain   1:    4.21172 elapsed seconds
Timing for main: time 2019-11-26_20:35:45 on domain   1:    4.21602 elapsed seconds
Timing for main: time 2019-11-26_20:36:00 on domain   1:    4.21365 elapsed seconds
Timing for main: time 2019-11-26_20:36:15 on domain   1:    4.21529 elapsed seconds
Timing for main: time 2019-11-26_20:36:30 on domain   1:    4.21375 elapsed seconds
Timing for main: time 2019-11-26_20:36:45 on domain   1:    4.21258 elapsed seconds
Timing for main: time 2019-11-26_20:37:00 on domain   1:    4.21228 elapsed seconds
Timing for main: time 2019-11-26_20:37:15 on domain   1:    4.21229 elapsed seconds
Timing for main: time 2019-11-26_20:37:30 on domain   1:    4.21215 elapsed seconds
Timing for main: time 2019-11-26_20:37:45 on domain   1:    4.21367 elapsed seconds
Timing for main: time 2019-11-26_20:38:00 on domain   1:    4.21060 elapsed seconds
Timing for main: time 2019-11-26_20:38:15 on domain   1:    4.21271 elapsed seconds
Timing for main: time 2019-11-26_20:38:30 on domain   1:    4.21289 elapsed seconds
Timing for main: time 2019-11-26_20:38:45 on domain   1:    4.20985 elapsed seconds
Timing for main: time 2019-11-26_20:39:00 on domain   1:    4.20792 elapsed seconds
Timing for main: time 2019-11-26_20:39:15 on domain   1:    4.24087 elapsed seconds
Timing for main: time 2019-11-26_20:39:30 on domain   1:    4.20794 elapsed seconds
Timing for main: time 2019-11-26_20:39:45 on domain   1:    4.20882 elapsed seconds
Timing for main: time 2019-11-26_20:40:00 on domain   1:    4.21135 elapsed seconds
Timing for main: time 2019-11-26_20:40:15 on domain   1:   33.21944 elapsed seconds
Timing for main: time 2019-11-26_20:40:30 on domain   1:    4.21980 elapsed seconds
Timing for main: time 2019-11-26_20:40:45 on domain   1:    4.22444 elapsed seconds
Timing for main: time 2019-11-26_20:41:00 on domain   1:    4.21455 elapsed seconds
Timing for main: time 2019-11-26_20:41:15 on domain   1:    4.20631 elapsed seconds
Timing for main: time 2019-11-26_20:41:30 on domain   1:    4.21743 elapsed seconds
Timing for main: time 2019-11-26_20:41:45 on domain   1:    4.20327 elapsed seconds
Timing for main: time 2019-11-26_20:42:00 on domain   1:    4.22132 elapsed seconds
Timing for main: time 2019-11-26_20:42:15 on domain   1:    4.20470 elapsed seconds
Timing for main: time 2019-11-26_20:42:30 on domain   1:    4.21322 elapsed seconds
Timing for main: time 2019-11-26_20:42:45 on domain   1:    4.24360 elapsed seconds
Timing for main: time 2019-11-26_20:43:00 on domain   1:    4.21439 elapsed seconds
Timing for main: time 2019-11-26_20:43:15 on domain   1:    4.21359 elapsed seconds
Timing for main: time 2019-11-26_20:43:30 on domain   1:    4.20962 elapsed seconds
Timing for main: time 2019-11-26_20:43:45 on domain   1:    4.21598 elapsed seconds
Timing for main: time 2019-11-26_20:44:00 on domain   1:    4.24521 elapsed seconds
Timing for main: time 2019-11-26_20:44:15 on domain   1:    4.20483 elapsed seconds
Timing for main: time 2019-11-26_20:44:30 on domain   1:    4.21234 elapsed seconds
Timing for main: time 2019-11-26_20:44:45 on domain   1:    4.22102 elapsed seconds
Timing for main: time 2019-11-26_20:45:00 on domain   1:    4.20915 elapsed seconds
Timing for main: time 2019-11-26_20:45:15 on domain   1:    4.20263 elapsed seconds
Timing for main: time 2019-11-26_20:45:30 on domain   1:    4.21190 elapsed seconds
Timing for main: time 2019-11-26_20:45:45 on domain   1:    4.20386 elapsed seconds
Timing for main: time 2019-11-26_20:46:00 on domain   1:    4.22128 elapsed seconds
Timing for main: time 2019-11-26_20:46:15 on domain   1:    4.20223 elapsed seconds
Timing for main: time 2019-11-26_20:46:30 on domain   1:    4.21149 elapsed seconds
Timing for main: time 2019-11-26_20:46:45 on domain   1:    4.22006 elapsed seconds
Timing for main: time 2019-11-26_20:47:00 on domain   1:    4.20957 elapsed seconds
Timing for main: time 2019-11-26_20:47:15 on domain   1:    4.21170 elapsed seconds
Timing for main: time 2019-11-26_20:47:30 on domain   1:    4.20845 elapsed seconds
Timing for main: time 2019-11-26_20:47:45 on domain   1:    4.21365 elapsed seconds
Timing for main: time 2019-11-26_20:48:00 on domain   1:    4.21881 elapsed seconds
Timing for main: time 2019-11-26_20:48:15 on domain   1:    4.23121 elapsed seconds
Timing for main: time 2019-11-26_20:48:30 on domain   1:    4.21435 elapsed seconds
Timing for main: time 2019-11-26_20:48:45 on domain   1:    4.21965 elapsed seconds
Timing for main: time 2019-11-26_20:49:00 on domain   1:    4.20751 elapsed seconds
Timing for main: time 2019-11-26_20:49:15 on domain   1:    4.20084 elapsed seconds
Timing for main: time 2019-11-26_20:49:30 on domain   1:    4.20807 elapsed seconds
Timing for main: time 2019-11-26_20:49:45 on domain   1:    4.19800 elapsed seconds
Timing for main: time 2019-11-26_20:50:00 on domain   1:    4.21884 elapsed seconds
Timing for main: time 2019-11-26_20:50:15 on domain   1:   33.20399 elapsed seconds
Timing for main: time 2019-11-26_20:50:30 on domain   1:    4.21023 elapsed seconds
Timing for main: time 2019-11-26_20:50:45 on domain   1:    4.23532 elapsed seconds
Timing for main: time 2019-11-26_20:51:00 on domain   1:    4.20588 elapsed seconds
Timing for main: time 2019-11-26_20:51:15 on domain   1:    4.20670 elapsed seconds
Timing for main: time 2019-11-26_20:51:30 on domain   1:    4.23131 elapsed seconds
Timing for main: time 2019-11-26_20:51:45 on domain   1:    4.20880 elapsed seconds
Timing for main: time 2019-11-26_20:52:00 on domain   1:    4.23661 elapsed seconds
Timing for main: time 2019-11-26_20:52:15 on domain   1:    4.20566 elapsed seconds
Timing for main: time 2019-11-26_20:52:30 on domain   1:    4.20651 elapsed seconds
Timing for main: time 2019-11-26_20:52:45 on domain   1:    4.20327 elapsed seconds
Timing for main: time 2019-11-26_20:53:00 on domain   1:    4.20655 elapsed seconds
Timing for main: time 2019-11-26_20:53:15 on domain   1:    4.20595 elapsed seconds
Timing for main: time 2019-11-26_20:53:30 on domain   1:    4.20573 elapsed seconds
Timing for main: time 2019-11-26_20:53:45 on domain   1:    4.20965 elapsed seconds
Timing for main: time 2019-11-26_20:54:00 on domain   1:    4.20941 elapsed seconds
Timing for main: time 2019-11-26_20:54:15 on domain   1:    4.23547 elapsed seconds
Timing for main: time 2019-11-26_20:54:30 on domain   1:    4.20752 elapsed seconds
Timing for main: time 2019-11-26_20:54:45 on domain   1:    4.20567 elapsed seconds
Timing for main: time 2019-11-26_20:55:00 on domain   1:    4.20697 elapsed seconds
Timing for main: time 2019-11-26_20:55:15 on domain   1:    4.20506 elapsed seconds
Timing for main: time 2019-11-26_20:55:30 on domain   1:    4.21068 elapsed seconds
Timing for main: time 2019-11-26_20:55:45 on domain   1:    4.20443 elapsed seconds
Timing for main: time 2019-11-26_20:56:00 on domain   1:    4.20161 elapsed seconds
Timing for main: time 2019-11-26_20:56:15 on domain   1:    4.20456 elapsed seconds
Timing for main: time 2019-11-26_20:56:30 on domain   1:    4.20110 elapsed seconds
Timing for main: time 2019-11-26_20:56:45 on domain   1:    4.20762 elapsed seconds
Timing for main: time 2019-11-26_20:57:00 on domain   1:    4.20333 elapsed seconds
Timing for main: time 2019-11-26_20:57:15 on domain   1:    4.20259 elapsed seconds
Timing for main: time 2019-11-26_20:57:30 on domain   1:    4.20214 elapsed seconds
Timing for main: time 2019-11-26_20:57:45 on domain   1:    4.20297 elapsed seconds
Timing for main: time 2019-11-26_20:58:00 on domain   1:    4.20306 elapsed seconds
Timing for main: time 2019-11-26_20:58:15 on domain   1:    4.20413 elapsed seconds
Timing for main: time 2019-11-26_20:58:30 on domain   1:    4.19949 elapsed seconds
Timing for main: time 2019-11-26_20:58:45 on domain   1:    4.20161 elapsed seconds
Timing for main: time 2019-11-26_20:59:00 on domain   1:    4.20127 elapsed seconds
Timing for main: time 2019-11-26_20:59:15 on domain   1:    4.20421 elapsed seconds
Timing for main: time 2019-11-26_20:59:30 on domain   1:    4.20145 elapsed seconds
Timing for main: time 2019-11-26_20:59:45 on domain   1:    4.20239 elapsed seconds
Timing for main: time 2019-11-26_21:00:00 on domain   1:    4.20521 elapsed seconds
 mediation_integrate.G        1249 DATASET=HISTORY
 mediation_integrate.G        1250  grid%id            1  grid%oid            2
Timing for Writing wrfout_d01_2019-11-26_21:00:00 for domain        1:    6.74599 elapsed seconds
 Input data is acceptable to use: wrfbdy_d01
Timing for processing lateral boundary for domain        1:    0.72433 elapsed seconds
Timing for main: time 2019-11-26_21:00:15 on domain   1:   40.89572 elapsed seconds
Timing for main: time 2019-11-26_21:00:30 on domain   1:    4.37424 elapsed seconds
Timing for main: time 2019-11-26_21:00:45 on domain   1:    4.36852 elapsed seconds
Timing for main: time 2019-11-26_21:01:00 on domain   1:    4.36583 elapsed seconds
Timing for main: time 2019-11-26_21:01:15 on domain   1:    4.36195 elapsed seconds
Timing for main: time 2019-11-26_21:01:30 on domain   1:    4.35975 elapsed seconds
Timing for main: time 2019-11-26_21:01:45 on domain   1:    4.36322 elapsed seconds
Timing for main: time 2019-11-26_21:02:00 on domain   1:    4.35322 elapsed seconds
Timing for main: time 2019-11-26_21:02:15 on domain   1:    4.35359 elapsed seconds
Timing for main: time 2019-11-26_21:02:30 on domain   1:    4.24270 elapsed seconds
Timing for main: time 2019-11-26_21:02:45 on domain   1:    4.22159 elapsed seconds
Timing for main: time 2019-11-26_21:03:00 on domain   1:    4.21029 elapsed seconds
Timing for main: time 2019-11-26_21:03:15 on domain   1:    4.20834 elapsed seconds
Timing for main: time 2019-11-26_21:03:30 on domain   1:    4.21299 elapsed seconds
Timing for main: time 2019-11-26_21:03:45 on domain   1:    4.20932 elapsed seconds
Timing for main: time 2019-11-26_21:04:00 on domain   1:    4.21039 elapsed seconds
Timing for main: time 2019-11-26_21:04:15 on domain   1:    4.20632 elapsed seconds
Timing for main: time 2019-11-26_21:04:30 on domain   1:    4.21194 elapsed seconds
Timing for main: time 2019-11-26_21:04:45 on domain   1:    4.20834 elapsed seconds
Timing for main: time 2019-11-26_21:05:00 on domain   1:    4.20822 elapsed seconds
Timing for main: time 2019-11-26_21:05:15 on domain   1:    4.20547 elapsed seconds
Timing for main: time 2019-11-26_21:05:30 on domain   1:    4.21172 elapsed seconds
Timing for main: time 2019-11-26_21:05:45 on domain   1:    4.21249 elapsed seconds
Timing for main: time 2019-11-26_21:06:00 on domain   1:    4.20990 elapsed seconds
Timing for main: time 2019-11-26_21:06:15 on domain   1:    4.21422 elapsed seconds
Timing for main: time 2019-11-26_21:06:30 on domain   1:    4.21144 elapsed seconds
Timing for main: time 2019-11-26_21:06:45 on domain   1:    4.20909 elapsed seconds
Timing for main: time 2019-11-26_21:07:00 on domain   1:    4.20902 elapsed seconds
Timing for main: time 2019-11-26_21:07:15 on domain   1:    4.20875 elapsed seconds
Timing for main: time 2019-11-26_21:07:30 on domain   1:    4.21332 elapsed seconds
Timing for main: time 2019-11-26_21:07:45 on domain   1:    4.21447 elapsed seconds
Timing for main: time 2019-11-26_21:08:00 on domain   1:    4.20990 elapsed seconds
Timing for main: time 2019-11-26_21:08:15 on domain   1:    4.20827 elapsed seconds
Timing for main: time 2019-11-26_21:08:30 on domain   1:    4.20466 elapsed seconds
Timing for main: time 2019-11-26_21:08:45 on domain   1:    4.21190 elapsed seconds
Timing for main: time 2019-11-26_21:09:00 on domain   1:    4.20518 elapsed seconds
Timing for main: time 2019-11-26_21:09:15 on domain   1:    4.20946 elapsed seconds
Timing for main: time 2019-11-26_21:09:30 on domain   1:    4.20684 elapsed seconds
Timing for main: time 2019-11-26_21:09:45 on domain   1:    4.21184 elapsed seconds
Timing for main: time 2019-11-26_21:10:00 on domain   1:    4.21508 elapsed seconds
Timing for main: time 2019-11-26_21:10:15 on domain   1:   33.19924 elapsed seconds
Timing for main: time 2019-11-26_21:10:30 on domain   1:    4.19669 elapsed seconds
Timing for main: time 2019-11-26_21:10:45 on domain   1:    4.19677 elapsed seconds
Timing for main: time 2019-11-26_21:11:00 on domain   1:    4.19566 elapsed seconds
Timing for main: time 2019-11-26_21:11:15 on domain   1:    4.19355 elapsed seconds
Timing for main: time 2019-11-26_21:11:30 on domain   1:    4.19638 elapsed seconds
Timing for main: time 2019-11-26_21:11:45 on domain   1:    4.20113 elapsed seconds
Timing for main: time 2019-11-26_21:12:00 on domain   1:    4.19450 elapsed seconds
Timing for main: time 2019-11-26_21:12:15 on domain   1:    4.19621 elapsed seconds
Timing for main: time 2019-11-26_21:12:30 on domain   1:    4.19269 elapsed seconds
Timing for main: time 2019-11-26_21:12:45 on domain   1:    4.19428 elapsed seconds
Timing for main: time 2019-11-26_21:13:00 on domain   1:    4.20201 elapsed seconds
Timing for main: time 2019-11-26_21:13:15 on domain   1:    4.19359 elapsed seconds
Timing for main: time 2019-11-26_21:13:30 on domain   1:    4.19331 elapsed seconds
Timing for main: time 2019-11-26_21:13:45 on domain   1:    4.19251 elapsed seconds
Timing for main: time 2019-11-26_21:14:00 on domain   1:    4.19358 elapsed seconds
Timing for main: time 2019-11-26_21:14:15 on domain   1:    4.19790 elapsed seconds
Timing for main: time 2019-11-26_21:14:30 on domain   1:    4.19527 elapsed seconds
Timing for main: time 2019-11-26_21:14:45 on domain   1:    4.19670 elapsed seconds
Timing for main: time 2019-11-26_21:15:00 on domain   1:    4.19661 elapsed seconds
Timing for main: time 2019-11-26_21:15:15 on domain   1:    4.19103 elapsed seconds
Timing for main: time 2019-11-26_21:15:30 on domain   1:    4.19413 elapsed seconds
Timing for main: time 2019-11-26_21:15:45 on domain   1:    4.19607 elapsed seconds
Timing for main: time 2019-11-26_21:16:00 on domain   1:    4.19128 elapsed seconds
Timing for main: time 2019-11-26_21:16:15 on domain   1:    4.19941 elapsed seconds
Timing for main: time 2019-11-26_21:16:30 on domain   1:    4.19108 elapsed seconds
Timing for main: time 2019-11-26_21:16:45 on domain   1:    4.20002 elapsed seconds
Timing for main: time 2019-11-26_21:17:00 on domain   1:    4.19253 elapsed seconds
Timing for main: time 2019-11-26_21:17:15 on domain   1:    4.19594 elapsed seconds
Timing for main: time 2019-11-26_21:17:30 on domain   1:    4.19626 elapsed seconds
Timing for main: time 2019-11-26_21:17:45 on domain   1:    4.19650 elapsed seconds
Timing for main: time 2019-11-26_21:18:00 on domain   1:    4.19355 elapsed seconds
Timing for main: time 2019-11-26_21:18:15 on domain   1:    4.29576 elapsed seconds
Timing for main: time 2019-11-26_21:18:30 on domain   1:    4.23460 elapsed seconds
Timing for main: time 2019-11-26_21:18:45 on domain   1:    4.19522 elapsed seconds
Timing for main: time 2019-11-26_21:19:00 on domain   1:    4.19272 elapsed seconds
Timing for main: time 2019-11-26_21:19:15 on domain   1:    4.19448 elapsed seconds
Timing for main: time 2019-11-26_21:19:30 on domain   1:    4.19203 elapsed seconds
Timing for main: time 2019-11-26_21:19:45 on domain   1:    4.19416 elapsed seconds
Timing for main: time 2019-11-26_21:20:00 on domain   1:    4.19384 elapsed seconds
Timing for main: time 2019-11-26_21:20:15 on domain   1:   33.93456 elapsed seconds
Timing for main: time 2019-11-26_21:20:30 on domain   1:    4.19316 elapsed seconds
Timing for main: time 2019-11-26_21:20:45 on domain   1:    4.20828 elapsed seconds
Timing for main: time 2019-11-26_21:21:00 on domain   1:    4.19575 elapsed seconds
Timing for main: time 2019-11-26_21:21:15 on domain   1:    4.20014 elapsed seconds
Timing for main: time 2019-11-26_21:21:30 on domain   1:    4.19568 elapsed seconds
Timing for main: time 2019-11-26_21:21:45 on domain   1:    4.19642 elapsed seconds
Timing for main: time 2019-11-26_21:22:00 on domain   1:    4.19975 elapsed seconds
Timing for main: time 2019-11-26_21:22:15 on domain   1:    4.19970 elapsed seconds
Timing for main: time 2019-11-26_21:22:30 on domain   1:    4.20909 elapsed seconds
Timing for main: time 2019-11-26_21:22:45 on domain   1:    4.20233 elapsed seconds
Timing for main: time 2019-11-26_21:23:00 on domain   1:    4.19936 elapsed seconds
Timing for main: time 2019-11-26_21:23:15 on domain   1:    4.20006 elapsed seconds
Timing for main: time 2019-11-26_21:23:30 on domain   1:    4.19430 elapsed seconds
Timing for main: time 2019-11-26_21:23:45 on domain   1:    4.19550 elapsed seconds
Timing for main: time 2019-11-26_21:24:00 on domain   1:    4.20905 elapsed seconds
Timing for main: time 2019-11-26_21:24:15 on domain   1:    4.20106 elapsed seconds
Timing for main: time 2019-11-26_21:24:30 on domain   1:    4.19936 elapsed seconds
Timing for main: time 2019-11-26_21:24:45 on domain   1:    4.20381 elapsed seconds
Timing for main: time 2019-11-26_21:25:00 on domain   1:    4.20407 elapsed seconds
Timing for main: time 2019-11-26_21:25:15 on domain   1:    4.20149 elapsed seconds
Timing for main: time 2019-11-26_21:25:30 on domain   1:    4.20023 elapsed seconds
Timing for main: time 2019-11-26_21:25:45 on domain   1:    4.19837 elapsed seconds
Timing for main: time 2019-11-26_21:26:00 on domain   1:    4.20185 elapsed seconds
Timing for main: time 2019-11-26_21:26:15 on domain   1:    4.20065 elapsed seconds
Timing for main: time 2019-11-26_21:26:30 on domain   1:    4.20003 elapsed seconds
Timing for main: time 2019-11-26_21:26:45 on domain   1:    4.19727 elapsed seconds
Timing for main: time 2019-11-26_21:27:00 on domain   1:    4.20487 elapsed seconds
Timing for main: time 2019-11-26_21:27:15 on domain   1:    4.20450 elapsed seconds
Timing for main: time 2019-11-26_21:27:30 on domain   1:    4.20222 elapsed seconds
Timing for main: time 2019-11-26_21:27:45 on domain   1:    4.20348 elapsed seconds
Timing for main: time 2019-11-26_21:28:00 on domain   1:    4.20449 elapsed seconds
Timing for main: time 2019-11-26_21:28:15 on domain   1:    4.20272 elapsed seconds
Timing for main: time 2019-11-26_21:28:30 on domain   1:    4.20765 elapsed seconds
Timing for main: time 2019-11-26_21:28:45 on domain   1:    4.19962 elapsed seconds
Timing for main: time 2019-11-26_21:29:00 on domain   1:    4.20793 elapsed seconds
Timing for main: time 2019-11-26_21:29:15 on domain   1:    4.20711 elapsed seconds
Timing for main: time 2019-11-26_21:29:30 on domain   1:    4.20677 elapsed seconds
Timing for main: time 2019-11-26_21:29:45 on domain   1:    4.19795 elapsed seconds
Timing for main: time 2019-11-26_21:30:00 on domain   1:    4.20801 elapsed seconds
Timing for main: time 2019-11-26_21:30:15 on domain   1:   33.31500 elapsed seconds
Timing for main: time 2019-11-26_21:30:30 on domain   1:    4.21752 elapsed seconds
Timing for main: time 2019-11-26_21:30:45 on domain   1:    4.21528 elapsed seconds
Timing for main: time 2019-11-26_21:31:00 on domain   1:    4.22267 elapsed seconds
Timing for main: time 2019-11-26_21:31:15 on domain   1:    4.21444 elapsed seconds
Timing for main: time 2019-11-26_21:31:30 on domain   1:    4.21188 elapsed seconds
Timing for main: time 2019-11-26_21:31:45 on domain   1:    4.21703 elapsed seconds
Timing for main: time 2019-11-26_21:32:00 on domain   1:    4.21078 elapsed seconds
Timing for main: time 2019-11-26_21:32:15 on domain   1:    4.21013 elapsed seconds
Timing for main: time 2019-11-26_21:32:30 on domain   1:    4.21473 elapsed seconds
Timing for main: time 2019-11-26_21:32:45 on domain   1:    4.21920 elapsed seconds
Timing for main: time 2019-11-26_21:33:00 on domain   1:    4.21278 elapsed seconds
Timing for main: time 2019-11-26_21:33:15 on domain   1:    4.21296 elapsed seconds
Timing for main: time 2019-11-26_21:33:30 on domain   1:    4.21345 elapsed seconds
Timing for main: time 2019-11-26_21:33:45 on domain   1:    4.21692 elapsed seconds
Timing for main: time 2019-11-26_21:34:00 on domain   1:    4.21819 elapsed seconds
Timing for main: time 2019-11-26_21:34:15 on domain   1:    4.21289 elapsed seconds
Timing for main: time 2019-11-26_21:34:30 on domain   1:    4.21628 elapsed seconds
Timing for main: time 2019-11-26_21:34:45 on domain   1:    4.21612 elapsed seconds
Timing for main: time 2019-11-26_21:35:00 on domain   1:    4.21624 elapsed seconds
Timing for main: time 2019-11-26_21:35:15 on domain   1:    4.21491 elapsed seconds
Timing for main: time 2019-11-26_21:35:30 on domain   1:    4.21597 elapsed seconds
Timing for main: time 2019-11-26_21:35:45 on domain   1:    4.21889 elapsed seconds
Timing for main: time 2019-11-26_21:36:00 on domain   1:    4.21571 elapsed seconds
Timing for main: time 2019-11-26_21:36:15 on domain   1:    4.21487 elapsed seconds
Timing for main: time 2019-11-26_21:36:30 on domain   1:    4.21389 elapsed seconds
Timing for main: time 2019-11-26_21:36:45 on domain   1:    4.22617 elapsed seconds
Timing for main: time 2019-11-26_21:37:00 on domain   1:    4.21740 elapsed seconds
Timing for main: time 2019-11-26_21:37:15 on domain   1:    4.21350 elapsed seconds
Timing for main: time 2019-11-26_21:37:30 on domain   1:    4.21626 elapsed seconds
Timing for main: time 2019-11-26_21:37:45 on domain   1:    4.21965 elapsed seconds
Timing for main: time 2019-11-26_21:38:00 on domain   1:    4.21928 elapsed seconds
Timing for main: time 2019-11-26_21:38:15 on domain   1:    4.21445 elapsed seconds
Timing for main: time 2019-11-26_21:38:30 on domain   1:    4.21858 elapsed seconds
Timing for main: time 2019-11-26_21:38:45 on domain   1:    4.22024 elapsed seconds
Timing for main: time 2019-11-26_21:39:00 on domain   1:    4.21953 elapsed seconds
Timing for main: time 2019-11-26_21:39:15 on domain   1:    4.21634 elapsed seconds
Timing for main: time 2019-11-26_21:39:30 on domain   1:    4.21961 elapsed seconds
Timing for main: time 2019-11-26_21:39:45 on domain   1:    4.22348 elapsed seconds
Timing for main: time 2019-11-26_21:40:00 on domain   1:    4.21808 elapsed seconds
Timing for main: time 2019-11-26_21:40:15 on domain   1:   33.27201 elapsed seconds
Timing for main: time 2019-11-26_21:40:30 on domain   1:    4.22430 elapsed seconds
Timing for main: time 2019-11-26_21:40:45 on domain   1:    4.21386 elapsed seconds
Timing for main: time 2019-11-26_21:41:00 on domain   1:    4.22439 elapsed seconds
Timing for main: time 2019-11-26_21:41:15 on domain   1:    4.22765 elapsed seconds
Timing for main: time 2019-11-26_21:41:30 on domain   1:    4.22190 elapsed seconds
Timing for main: time 2019-11-26_21:41:45 on domain   1:    4.21617 elapsed seconds
Timing for main: time 2019-11-26_21:42:00 on domain   1:    4.22280 elapsed seconds
Timing for main: time 2019-11-26_21:42:15 on domain   1:    4.21263 elapsed seconds
Timing for main: time 2019-11-26_21:42:30 on domain   1:    4.22740 elapsed seconds
Timing for main: time 2019-11-26_21:42:45 on domain   1:    4.22224 elapsed seconds
Timing for main: time 2019-11-26_21:43:00 on domain   1:    4.21940 elapsed seconds
Timing for main: time 2019-11-26_21:43:15 on domain   1:    4.21442 elapsed seconds
Timing for main: time 2019-11-26_21:43:30 on domain   1:    4.22549 elapsed seconds
Timing for main: time 2019-11-26_21:43:45 on domain   1:    4.22688 elapsed seconds
Timing for main: time 2019-11-26_21:44:00 on domain   1:    4.23092 elapsed seconds
[...]
Timing for main: time 2019-11-26_23:01:30 on domain   1:    4.65684 elapsed seconds
Timing for main: time 2019-11-26_23:01:45 on domain   1:    4.64644 elapsed seconds
Timing for main: time 2019-11-26_23:02:00 on domain   1:    4.64597 elapsed seconds
Timing for main: time 2019-11-26_23:02:15 on domain   1:    4.65288 elapsed seconds
Timing for main: time 2019-11-26_23:02:30 on domain   1:    4.63468 elapsed seconds
Timing for main: time 2019-11-26_23:02:45 on domain   1:    4.64843 elapsed seconds
Timing for main: time 2019-11-26_23:03:00 on domain   1:    4.64596 elapsed seconds
Timing for main: time 2019-11-26_23:03:15 on domain   1:    4.64910 elapsed seconds
Timing for main: time 2019-11-26_23:03:30 on domain   1:    4.63141 elapsed seconds
Timing for main: time 2019-11-26_23:03:45 on domain   1:    4.64948 elapsed seconds
Timing for main: time 2019-11-26_23:04:00 on domain   1:    4.64843 elapsed seconds
Timing for main: time 2019-11-26_23:04:15 on domain   1:    4.65698 elapsed seconds
Timing for main: time 2019-11-26_23:04:30 on domain   1:    4.65028 elapsed seconds
Timing for main: time 2019-11-26_23:04:45 on domain   1:    4.64738 elapsed seconds
Timing for main: time 2019-11-26_23:05:00 on domain   1:    4.65005 elapsed seconds
Timing for main: time 2019-11-26_23:05:15 on domain   1:    4.64574 elapsed seconds
Timing for main: time 2019-11-26_23:05:30 on domain   1:    4.64683 elapsed seconds
Timing for main: time 2019-11-26_23:05:45 on domain   1:    4.64607 elapsed seconds
Timing for main: time 2019-11-26_23:06:00 on domain   1:    4.65708 elapsed seconds
Timing for main: time 2019-11-26_23:06:15 on domain   1:    4.64501 elapsed seconds
Timing for main: time 2019-11-26_23:06:30 on domain   1:    4.65873 elapsed seconds
Timing for main: time 2019-11-26_23:06:45 on domain   1:    4.66217 elapsed seconds
Timing for main: time 2019-11-26_23:07:00 on domain   1:    4.63720 elapsed seconds
Timing for main: time 2019-11-26_23:07:15 on domain   1:    4.64047 elapsed seconds
Timing for main: time 2019-11-26_23:07:30 on domain   1:    4.65443 elapsed seconds
Timing for main: time 2019-11-26_23:07:45 on domain   1:    4.64592 elapsed seconds
Timing for main: time 2019-11-26_23:08:00 on domain   1:    4.66717 elapsed seconds
Timing for main: time 2019-11-26_23:08:15 on domain   1:    4.66658 elapsed seconds
Timing for main: time 2019-11-26_23:08:30 on domain   1:    4.64369 elapsed seconds
Timing for main: time 2019-11-26_23:08:45 on domain   1:    4.66046 elapsed seconds
Timing for main: time 2019-11-26_23:09:00 on domain   1:    4.64640 elapsed seconds
Timing for main: time 2019-11-26_23:09:15 on domain   1:    4.65265 elapsed seconds
Timing for main: time 2019-11-26_23:09:30 on domain   1:    4.64972 elapsed seconds
Timing for main: time 2019-11-26_23:09:45 on domain   1:    4.64657 elapsed seconds
Timing for main: time 2019-11-26_23:10:00 on domain   1:    4.65128 elapsed seconds
Timing for main: time 2019-11-26_23:10:15 on domain   1:   33.49894 elapsed seconds
Timing for main: time 2019-11-26_23:10:30 on domain   1:    4.65045 elapsed seconds
Timing for main: time 2019-11-26_23:10:45 on domain   1:    4.63433 elapsed seconds
Timing for main: time 2019-11-26_23:11:00 on domain   1:    4.64876 elapsed seconds
Timing for main: time 2019-11-26_23:11:15 on domain   1:    4.65251 elapsed seconds
Timing for main: time 2019-11-26_23:11:30 on domain   1:    4.65946 elapsed seconds
Timing for main: time 2019-11-26_23:11:45 on domain   1:    4.64552 elapsed seconds
Timing for main: time 2019-11-26_23:12:00 on domain   1:    4.64310 elapsed seconds
Timing for main: time 2019-11-26_23:12:15 on domain   1:    4.65764 elapsed seconds
Timing for main: time 2019-11-26_23:12:30 on domain   1:    4.66212 elapsed seconds
Timing for main: time 2019-11-26_23:12:45 on domain   1:    4.64622 elapsed seconds
Timing for main: time 2019-11-26_23:13:00 on domain   1:    4.64904 elapsed seconds
Timing for main: time 2019-11-26_23:13:15 on domain   1:    4.64780 elapsed seconds
Timing for main: time 2019-11-26_23:13:30 on domain   1:    4.65791 elapsed seconds
Timing for main: time 2019-11-26_23:13:45 on domain   1:    4.65576 elapsed seconds
Timing for main: time 2019-11-26_23:14:00 on domain   1:    4.64551 elapsed seconds
Timing for main: time 2019-11-26_23:14:15 on domain   1:    4.65658 elapsed seconds
Timing for main: time 2019-11-26_23:14:30 on domain   1:    4.65478 elapsed seconds
Timing for main: time 2019-11-26_23:14:45 on domain   1:    4.65199 elapsed seconds
Timing for main: time 2019-11-26_23:15:00 on domain   1:    4.65473 elapsed seconds
Timing for main: time 2019-11-26_23:15:15 on domain   1:    4.64564 elapsed seconds
Timing for main: time 2019-11-26_23:15:30 on domain   1:    4.67015 elapsed seconds
Timing for main: time 2019-11-26_23:15:45 on domain   1:    4.66258 elapsed seconds
Timing for main: time 2019-11-26_23:16:00 on domain   1:    4.65866 elapsed seconds
Timing for main: time 2019-11-26_23:16:15 on domain   1:    4.65007 elapsed seconds
Timing for main: time 2019-11-26_23:16:30 on domain   1:    4.64740 elapsed seconds
Timing for main: time 2019-11-26_23:16:45 on domain   1:    4.66004 elapsed seconds
Timing for main: time 2019-11-26_23:17:00 on domain   1:    4.66128 elapsed seconds
Timing for main: time 2019-11-26_23:17:15 on domain   1:    4.65049 elapsed seconds
Timing for main: time 2019-11-26_23:17:30 on domain   1:    4.66078 elapsed seconds
Timing for main: time 2019-11-26_23:17:45 on domain   1:    4.64549 elapsed seconds
Timing for main: time 2019-11-26_23:18:00 on domain   1:    4.66204 elapsed seconds
Timing for main: time 2019-11-26_23:18:15 on domain   1:    4.65753 elapsed seconds
Timing for main: time 2019-11-26_23:18:30 on domain   1:    4.64450 elapsed seconds
Timing for main: time 2019-11-26_23:18:45 on domain   1:    4.64452 elapsed seconds
Timing for main: time 2019-11-26_23:19:00 on domain   1:    4.65854 elapsed seconds
Timing for main: time 2019-11-26_23:19:15 on domain   1:    4.65141 elapsed seconds
Timing for main: time 2019-11-26_23:19:30 on domain   1:    4.65791 elapsed seconds
Timing for main: time 2019-11-26_23:19:45 on domain   1:    4.65147 elapsed seconds
Timing for main: time 2019-11-26_23:20:00 on domain   1:    4.65651 elapsed seconds
Timing for main: time 2019-11-26_23:20:15 on domain   1:   33.56709 elapsed seconds
Timing for main: time 2019-11-26_23:20:30 on domain   1:    4.63506 elapsed seconds
Timing for main: time 2019-11-26_23:20:45 on domain   1:    4.63861 elapsed seconds
Timing for main: time 2019-11-26_23:21:00 on domain   1:    4.64060 elapsed seconds
Timing for main: time 2019-11-26_23:21:15 on domain   1:    4.65187 elapsed seconds
Timing for main: time 2019-11-26_23:21:30 on domain   1:    4.64198 elapsed seconds
Timing for main: time 2019-11-26_23:21:45 on domain   1:    4.63897 elapsed seconds
Timing for main: time 2019-11-26_23:22:00 on domain   1:    4.65430 elapsed seconds
Timing for main: time 2019-11-26_23:22:15 on domain   1:    4.64899 elapsed seconds
Timing for main: time 2019-11-26_23:22:30 on domain   1:    4.65746 elapsed seconds
Timing for main: time 2019-11-26_23:22:45 on domain   1:    4.65533 elapsed seconds
Timing for main: time 2019-11-26_23:23:00 on domain   1:    4.64181 elapsed seconds
Timing for main: time 2019-11-26_23:23:15 on domain   1:    4.63962 elapsed seconds
Timing for main: time 2019-11-26_23:23:30 on domain   1:    4.63877 elapsed seconds
Timing for main: time 2019-11-26_23:23:45 on domain   1:    4.61970 elapsed seconds
Timing for main: time 2019-11-26_23:24:00 on domain   1:    4.64658 elapsed seconds
Timing for main: time 2019-11-26_23:24:15 on domain   1:    4.66022 elapsed seconds
Timing for main: time 2019-11-26_23:24:30 on domain   1:    4.64251 elapsed seconds
Timing for main: time 2019-11-26_23:24:45 on domain   1:    4.66107 elapsed seconds
Timing for main: time 2019-11-26_23:25:00 on domain   1:    4.64122 elapsed seconds
Timing for main: time 2019-11-26_23:25:15 on domain   1:    4.64324 elapsed seconds
Timing for main: time 2019-11-26_23:25:30 on domain   1:    4.64050 elapsed seconds
Timing for main: time 2019-11-26_23:25:45 on domain   1:    4.64779 elapsed seconds
Timing for main: time 2019-11-26_23:26:00 on domain   1:    4.62155 elapsed seconds
Timing for main: time 2019-11-26_23:26:15 on domain   1:    4.65545 elapsed seconds
Timing for main: time 2019-11-26_23:26:30 on domain   1:    4.63262 elapsed seconds
Timing for main: time 2019-11-26_23:26:45 on domain   1:    4.63511 elapsed seconds
Timing for main: time 2019-11-26_23:27:00 on domain   1:    4.63853 elapsed seconds
Timing for main: time 2019-11-26_23:27:15 on domain   1:    4.64839 elapsed seconds
Timing for main: time 2019-11-26_23:27:30 on domain   1:    4.63834 elapsed seconds
Timing for main: time 2019-11-26_23:27:45 on domain   1:    4.64284 elapsed seconds
Timing for main: time 2019-11-26_23:28:00 on domain   1:    4.63452 elapsed seconds
Timing for main: time 2019-11-26_23:28:15 on domain   1:    4.65160 elapsed seconds
Timing for main: time 2019-11-26_23:28:30 on domain   1:    4.63696 elapsed seconds
Timing for main: time 2019-11-26_23:28:45 on domain   1:    4.64612 elapsed seconds
Timing for main: time 2019-11-26_23:29:00 on domain   1:    4.64221 elapsed seconds
Timing for main: time 2019-11-26_23:29:15 on domain   1:    4.63593 elapsed seconds
Timing for main: time 2019-11-26_23:29:30 on domain   1:    4.63418 elapsed seconds
Timing for main: time 2019-11-26_23:29:45 on domain   1:    4.64925 elapsed seconds
Timing for main: time 2019-11-26_23:30:00 on domain   1:    4.62335 elapsed seconds
Timing for main: time 2019-11-26_23:30:15 on domain   1:   33.62418 elapsed seconds
Timing for main: time 2019-11-26_23:30:30 on domain   1:    4.64664 elapsed seconds
Timing for main: time 2019-11-26_23:30:45 on domain   1:    4.64735 elapsed seconds
Timing for main: time 2019-11-26_23:31:00 on domain   1:    4.65621 elapsed seconds
Timing for main: time 2019-11-26_23:31:15 on domain   1:    4.64585 elapsed seconds
Timing for main: time 2019-11-26_23:31:30 on domain   1:    4.64076 elapsed seconds
Timing for main: time 2019-11-26_23:31:45 on domain   1:    4.67030 elapsed seconds
Timing for main: time 2019-11-26_23:32:00 on domain   1:    4.66896 elapsed seconds
Timing for main: time 2019-11-26_23:32:15 on domain   1:    4.66683 elapsed seconds
Timing for main: time 2019-11-26_23:32:30 on domain   1:    4.65197 elapsed seconds
Timing for main: time 2019-11-26_23:32:45 on domain   1:    4.66252 elapsed seconds
Timing for main: time 2019-11-26_23:33:00 on domain   1:    4.65388 elapsed seconds
Timing for main: time 2019-11-26_23:33:15 on domain   1:    4.65294 elapsed seconds
Timing for main: time 2019-11-26_23:33:30 on domain   1:    4.66189 elapsed seconds
Timing for main: time 2019-11-26_23:33:45 on domain   1:    4.67560 elapsed seconds
Timing for main: time 2019-11-26_23:34:00 on domain   1:    4.64963 elapsed seconds
Timing for main: time 2019-11-26_23:34:15 on domain   1:    4.66038 elapsed seconds
Timing for main: time 2019-11-26_23:34:30 on domain   1:    4.66461 elapsed seconds
Timing for main: time 2019-11-26_23:34:45 on domain   1:    4.64946 elapsed seconds
Timing for main: time 2019-11-26_23:35:00 on domain   1:    4.65793 elapsed seconds
Timing for main: time 2019-11-26_23:35:15 on domain   1:    4.65695 elapsed seconds
Timing for main: time 2019-11-26_23:35:30 on domain   1:    4.67318 elapsed seconds
Timing for main: time 2019-11-26_23:35:45 on domain   1:    4.65423 elapsed seconds
Timing for main: time 2019-11-26_23:36:00 on domain   1:    4.64904 elapsed seconds
Timing for main: time 2019-11-26_23:36:15 on domain   1:    4.65181 elapsed seconds
Timing for main: time 2019-11-26_23:36:30 on domain   1:    4.66210 elapsed seconds
Timing for main: time 2019-11-26_23:36:45 on domain   1:    4.65117 elapsed seconds
Timing for main: time 2019-11-26_23:37:00 on domain   1:    4.64780 elapsed seconds
Timing for main: time 2019-11-26_23:37:15 on domain   1:    4.66241 elapsed seconds
Timing for main: time 2019-11-26_23:37:30 on domain   1:    4.66953 elapsed seconds
Timing for main: time 2019-11-26_23:37:45 on domain   1:    4.64678 elapsed seconds
Timing for main: time 2019-11-26_23:38:00 on domain   1:    4.67522 elapsed seconds
Timing for main: time 2019-11-26_23:38:15 on domain   1:    4.66656 elapsed seconds
Timing for main: time 2019-11-26_23:38:30 on domain   1:    4.65763 elapsed seconds
Timing for main: time 2019-11-26_23:38:45 on domain   1:    4.67401 elapsed seconds
Timing for main: time 2019-11-26_23:39:00 on domain   1:    4.66240 elapsed seconds
Timing for main: time 2019-11-26_23:39:15 on domain   1:    4.66962 elapsed seconds
Timing for main: time 2019-11-26_23:39:30 on domain   1:    4.65500 elapsed seconds
Timing for main: time 2019-11-26_23:39:45 on domain   1:    4.67010 elapsed seconds
Timing for main: time 2019-11-26_23:40:00 on domain   1:    4.67248 elapsed seconds
Timing for main: time 2019-11-26_23:40:15 on domain   1:   33.56009 elapsed seconds
Timing for main: time 2019-11-26_23:40:30 on domain   1:    4.61740 elapsed seconds
Timing for main: time 2019-11-26_23:40:45 on domain   1:    4.63728 elapsed seconds
Timing for main: time 2019-11-26_23:41:00 on domain   1:    4.64681 elapsed seconds
Timing for main: time 2019-11-26_23:41:15 on domain   1:    4.62452 elapsed seconds
Timing for main: time 2019-11-26_23:41:30 on domain   1:    4.63632 elapsed seconds
Timing for main: time 2019-11-26_23:41:45 on domain   1:    4.63403 elapsed seconds
Timing for main: time 2019-11-26_23:42:00 on domain   1:    4.63661 elapsed seconds
Timing for main: time 2019-11-26_23:42:15 on domain   1:    4.63268 elapsed seconds
Timing for main: time 2019-11-26_23:42:30 on domain   1:    4.63353 elapsed seconds
Timing for main: time 2019-11-26_23:42:45 on domain   1:    4.62850 elapsed seconds
Timing for main: time 2019-11-26_23:43:00 on domain   1:    4.63482 elapsed seconds
Timing for main: time 2019-11-26_23:43:15 on domain   1:    4.64402 elapsed seconds
Timing for main: time 2019-11-26_23:43:30 on domain   1:    4.63347 elapsed seconds
Timing for main: time 2019-11-26_23:43:45 on domain   1:    4.64107 elapsed seconds
Timing for main: time 2019-11-26_23:44:00 on domain   1:    4.63657 elapsed seconds
Timing for main: time 2019-11-26_23:44:15 on domain   1:    4.63476 elapsed seconds
Timing for main: time 2019-11-26_23:44:30 on domain   1:    4.63044 elapsed seconds
Timing for main: time 2019-11-26_23:44:45 on domain   1:    4.63336 elapsed seconds
Timing for main: time 2019-11-26_23:45:00 on domain   1:    4.63105 elapsed seconds
Timing for main: time 2019-11-26_23:45:15 on domain   1:    4.63324 elapsed seconds
Timing for main: time 2019-11-26_23:45:30 on domain   1:    4.64694 elapsed seconds
Timing for main: time 2019-11-26_23:45:45 on domain   1:    4.62950 elapsed seconds
Timing for main: time 2019-11-26_23:46:00 on domain   1:    4.64081 elapsed seconds
Timing for main: time 2019-11-26_23:46:15 on domain   1:    4.63251 elapsed seconds
Timing for main: time 2019-11-26_23:46:30 on domain   1:    4.62752 elapsed seconds
Timing for main: time 2019-11-26_23:46:45 on domain   1:    4.63174 elapsed seconds
Timing for main: time 2019-11-26_23:47:00 on domain   1:    4.63418 elapsed seconds
Timing for main: time 2019-11-26_23:47:15 on domain   1:    4.63610 elapsed seconds
Timing for main: time 2019-11-26_23:47:30 on domain   1:    4.63780 elapsed seconds
Timing for main: time 2019-11-26_23:47:45 on domain   1:    4.63023 elapsed seconds
Timing for main: time 2019-11-26_23:48:00 on domain   1:    4.62843 elapsed seconds
Timing for main: time 2019-11-26_23:48:15 on domain   1:    4.62863 elapsed seconds
Timing for main: time 2019-11-26_23:48:30 on domain   1:    4.63451 elapsed seconds
Timing for main: time 2019-11-26_23:48:45 on domain   1:    4.62922 elapsed seconds
Timing for main: time 2019-11-26_23:49:00 on domain   1:    4.63587 elapsed seconds
Timing for main: time 2019-11-26_23:49:15 on domain   1:    4.64923 elapsed seconds
Timing for main: time 2019-11-26_23:49:30 on domain   1:    4.63585 elapsed seconds
Timing for main: time 2019-11-26_23:49:45 on domain   1:    4.63363 elapsed seconds
Timing for main: time 2019-11-26_23:50:00 on domain   1:    4.63783 elapsed seconds
Timing for main: time 2019-11-26_23:50:15 on domain   1:   33.65097 elapsed seconds
Timing for main: time 2019-11-26_23:50:30 on domain   1:    4.64854 elapsed seconds
Timing for main: time 2019-11-26_23:50:45 on domain   1:    4.63069 elapsed seconds
Timing for main: time 2019-11-26_23:51:00 on domain   1:    4.63913 elapsed seconds
Timing for main: time 2019-11-26_23:51:15 on domain   1:    4.64987 elapsed seconds
Timing for main: time 2019-11-26_23:51:30 on domain   1:    4.65395 elapsed seconds
Timing for main: time 2019-11-26_23:51:45 on domain   1:    4.63005 elapsed seconds
Timing for main: time 2019-11-26_23:52:00 on domain   1:    4.63937 elapsed seconds
Timing for main: time 2019-11-26_23:52:15 on domain   1:    4.64102 elapsed seconds
Timing for main: time 2019-11-26_23:52:30 on domain   1:    4.63978 elapsed seconds
Timing for main: time 2019-11-26_23:52:45 on domain   1:    4.65701 elapsed seconds
Timing for main: time 2019-11-26_23:53:00 on domain   1:    4.64390 elapsed seconds
Timing for main: time 2019-11-26_23:53:15 on domain   1:    4.64982 elapsed seconds
Timing for main: time 2019-11-26_23:53:30 on domain   1:    4.63531 elapsed seconds
Timing for main: time 2019-11-26_23:53:45 on domain   1:    4.65146 elapsed seconds
Timing for main: time 2019-11-26_23:54:00 on domain   1:    4.63257 elapsed seconds
Timing for main: time 2019-11-26_23:54:15 on domain   1:    4.64892 elapsed seconds
Timing for main: time 2019-11-26_23:54:30 on domain   1:    4.64735 elapsed seconds
Timing for main: time 2019-11-26_23:54:45 on domain   1:    4.64006 elapsed seconds
Timing for main: time 2019-11-26_23:55:00 on domain   1:    4.64131 elapsed seconds
Timing for main: time 2019-11-26_23:55:15 on domain   1:    4.65037 elapsed seconds
Timing for main: time 2019-11-26_23:55:30 on domain   1:    4.65810 elapsed seconds
Timing for main: time 2019-11-26_23:55:45 on domain   1:    4.63032 elapsed seconds
Timing for main: time 2019-11-26_23:56:00 on domain   1:    4.65145 elapsed seconds
Timing for main: time 2019-11-26_23:56:15 on domain   1:    4.63622 elapsed seconds
Timing for main: time 2019-11-26_23:56:30 on domain   1:    4.65609 elapsed seconds
Timing for main: time 2019-11-26_23:56:45 on domain   1:    4.65725 elapsed seconds
Timing for main: time 2019-11-26_23:57:00 on domain   1:    4.64920 elapsed seconds
Timing for main: time 2019-11-26_23:57:15 on domain   1:    4.65562 elapsed seconds
Timing for main: time 2019-11-26_23:57:30 on domain   1:    4.63772 elapsed seconds
Timing for main: time 2019-11-26_23:57:45 on domain   1:    4.63935 elapsed seconds
Timing for main: time 2019-11-26_23:58:00 on domain   1:    4.64738 elapsed seconds
Timing for main: time 2019-11-26_23:58:15 on domain   1:    4.63499 elapsed seconds
Timing for main: time 2019-11-26_23:58:30 on domain   1:    4.65722 elapsed seconds
Timing for main: time 2019-11-26_23:58:45 on domain   1:    4.64315 elapsed seconds
Timing for main: time 2019-11-26_23:59:00 on domain   1:    4.64568 elapsed seconds
Timing for main: time 2019-11-26_23:59:15 on domain   1:    4.64845 elapsed seconds
Timing for main: time 2019-11-26_23:59:30 on domain   1:    4.66162 elapsed seconds
Timing for main: time 2019-11-26_23:59:45 on domain   1:    4.65451 elapsed seconds
Timing for main: time 2019-11-27_00:00:00 on domain   1:    4.64914 elapsed seconds
 mediation_integrate.G        1249 DATASET=HISTORY
 mediation_integrate.G        1250  grid%id            1  grid%oid            2
Timing for Writing wrfout_d01_2019-11-27_00:00:00 for domain        1:    6.33377 elapsed seconds
wrf: SUCCESS COMPLETE WRF
