taskid: 0 hostname: x1002c6s5b0n0
 module_io_quilt_old.F        2931 F
Quilting with   1 groups of   0 I/O tasks.
 Ntasks in X            4 , ntasks in Y            6
*************************************
Configuring physics suite 'conus'

         mp_physics:      8
         cu_physics:      0*
      ra_lw_physics:      4
      ra_sw_physics:      4
     bl_pbl_physics:      2
  sf_sfclay_physics:      2
 sf_surface_physics:      2

(* = option overrides suite setting)
*************************************
Domain # 1: dx =  2500.000 m
WRF V4.7.1 MODEL
No git found or not a git repository, git commit version not available.
 *************************************
 Parent domain
 ids,ide,jds,jde            1        1501           1        1201
 ims,ime,jms,jme           -4         382          -4         207
 ips,ipe,jps,jpe            1         375           1         200
 *************************************
DYNAMICS OPTION: Eulerian Mass Coordinate
 alloc_space_field: domain            1 ,            2619120244  bytes allocated
med_initialdata_input: calling input_input
 Input data is acceptable to use: wrfinput_d01
 CURRENT DATE          = 2019-11-26_18:00:00
 SIMULATION START DATE = 2019-11-26_18:00:00
Timing for processing wrfinput file (stream 0) for domain        1:   26.96396 elapsed seconds
Max map factor in domain 1 =  1.02. Scale the dt in the model accordingly.
 D01: Time step                              =    15.0000000      (s)
 D01: Grid Distance                          =    2.50000000      (km)
 D01: Grid Distance Ratio dt/dx              =    6.00000000      (s/km)
 D01: Ratio Including Maximum Map Factor     =    6.13815594      (s/km)
 D01: NML defined reasonable_time_step_ratio =    6.00000000
 Climate GHG input from file from year         1765  to         2499
 CO2   range =    277.91300000000001        579.26400000000001       ppm
 N2O   range =    274.37200000000001        359.79800000000000       ppb
 CH4   range =    738.98599999999999        997.31100000000004       ppb
 CFC11 range =    0.0000000000000000        1.4000000000000000E-002  ppt
 CFC12 range =    0.0000000000000000        2.8809999999999998       ppt
 Normal ending of CAMtr_volume_mixing_ratio file
 GHG annual values from CAM trace gas file
 Year =         2019 , Julian day =          330
 CO2   =    4.1280616288937283E-004  volume mixing ratio
 N2O   =    3.3164731848847696E-007  volume mixing ratio
 CH4   =    1.9046224215321381E-006  volume mixing ratio
 CFC11 =    2.1972312207550427E-010  volume mixing ratio
 CFC12 =    4.9756474391800364E-010  volume mixing ratio
INPUT LandUse = "MODIFIED_IGBP_MODIS_NOAH"
 LANDUSE TYPE = "MODIFIED_IGBP_MODIS_NOAH" FOUND          61  CATEGORIES           2  SEASONS WATER CATEGORY =           17  SNOW CATEGORY =           15
INITIALIZE THREE Noah LSM RELATED TABLES
Skipping over LUTYPE = USGS
 LANDUSE TYPE = MODIFIED_IGBP_MODIS_NOAH FOUND          20  CATEGORIES
 INPUT SOIL TEXTURE CLASSIFICATION = STAS
 SOIL TEXTURE CLASSIFICATION = STAS FOUND          19  CATEGORIES
ThompMP: read qr_acr_qg_V4.dat     instead of computing
ThompMP: read qr_acr_qsV2.dat instead of computing
ThompMP: read freezeH2O.dat instead of computing
 mediation_integrate.G        1249 DATASET=HISTORY
 mediation_integrate.G        1250  grid%id            1  grid%oid            1
Timing for Writing wrfout_d01_2019-11-26_18:00:00 for domain        1:    4.50172 elapsed seconds
 Input data is acceptable to use: wrfbdy_d01
Timing for processing lateral boundary for domain        1:    0.48920 elapsed seconds
WRF NUMBER OF TILES FROM OMP_GET_MAX_THREADS =   4
 Tile Strategy is not specified. Assuming 1D-Y
WRF TILE   1 IS      1 IE    375 JS      1 JE     50
WRF TILE   2 IS      1 IE    375 JS     51 JE    100
WRF TILE   3 IS      1 IE    375 JS    101 JE    150
WRF TILE   4 IS      1 IE    375 JS    151 JE    200
WRF NUMBER OF TILES =   4
 ----------------------------------------
 W-DAMPING  BEGINS AT W-COURANT NUMBER =    1.00000000
 ----------------------------------------
Timing for main: time 2019-11-26_18:00:15 on domain   1:   34.01003 elapsed seconds
Timing for main: time 2019-11-26_18:00:30 on domain   1:    3.68070 elapsed seconds
Timing for main: time 2019-11-26_18:00:45 on domain   1:    3.68034 elapsed seconds
Timing for main: time 2019-11-26_18:01:00 on domain   1:    3.68188 elapsed seconds
Timing for main: time 2019-11-26_18:01:15 on domain   1:    3.68155 elapsed seconds
Timing for main: time 2019-11-26_18:01:30 on domain   1:    3.68531 elapsed seconds
Timing for main: time 2019-11-26_18:01:45 on domain   1:    3.68236 elapsed seconds
Timing for main: time 2019-11-26_18:02:00 on domain   1:    3.68440 elapsed seconds
Timing for main: time 2019-11-26_18:02:15 on domain   1:    3.68506 elapsed seconds
Timing for main: time 2019-11-26_18:02:30 on domain   1:    3.68483 elapsed seconds
Timing for main: time 2019-11-26_18:02:45 on domain   1:    3.68444 elapsed seconds
Timing for main: time 2019-11-26_18:03:00 on domain   1:    3.68759 elapsed seconds
Timing for main: time 2019-11-26_18:03:15 on domain   1:    3.68786 elapsed seconds
Timing for main: time 2019-11-26_18:03:30 on domain   1:    3.68831 elapsed seconds
Timing for main: time 2019-11-26_18:03:45 on domain   1:    3.68964 elapsed seconds
Timing for main: time 2019-11-26_18:04:00 on domain   1:    3.69117 elapsed seconds
Timing for main: time 2019-11-26_18:04:15 on domain   1:    3.69128 elapsed seconds
Timing for main: time 2019-11-26_18:04:30 on domain   1:    3.69412 elapsed seconds
Timing for main: time 2019-11-26_18:04:45 on domain   1:    3.68750 elapsed seconds
Timing for main: time 2019-11-26_18:05:00 on domain   1:    3.69138 elapsed seconds
Timing for main: time 2019-11-26_18:05:15 on domain   1:    3.69479 elapsed seconds
Timing for main: time 2019-11-26_18:05:30 on domain   1:    3.68818 elapsed seconds
Timing for main: time 2019-11-26_18:05:45 on domain   1:    3.69169 elapsed seconds
Timing for main: time 2019-11-26_18:06:00 on domain   1:    3.69553 elapsed seconds
Timing for main: time 2019-11-26_18:06:15 on domain   1:    3.68901 elapsed seconds
Timing for main: time 2019-11-26_18:06:30 on domain   1:    3.69860 elapsed seconds
Timing for main: time 2019-11-26_18:06:45 on domain   1:    3.69845 elapsed seconds
Timing for main: time 2019-11-26_18:07:00 on domain   1:    3.69977 elapsed seconds
Timing for main: time 2019-11-26_18:07:15 on domain   1:    3.69933 elapsed seconds
Timing for main: time 2019-11-26_18:07:30 on domain   1:    3.69989 elapsed seconds
Timing for main: time 2019-11-26_18:07:45 on domain   1:    3.69960 elapsed seconds
Timing for main: time 2019-11-26_18:08:00 on domain   1:    3.70101 elapsed seconds
Timing for main: time 2019-11-26_18:08:15 on domain   1:    3.69077 elapsed seconds
Timing for main: time 2019-11-26_18:08:30 on domain   1:    3.70480 elapsed seconds
Timing for main: time 2019-11-26_18:08:45 on domain   1:    3.70212 elapsed seconds
Timing for main: time 2019-11-26_18:09:00 on domain   1:    3.70517 elapsed seconds
Timing for main: time 2019-11-26_18:09:15 on domain   1:    3.70441 elapsed seconds
Timing for main: time 2019-11-26_18:09:30 on domain   1:    3.70338 elapsed seconds
Timing for main: time 2019-11-26_18:09:45 on domain   1:    3.70775 elapsed seconds
Timing for main: time 2019-11-26_18:10:00 on domain   1:    3.70649 elapsed seconds
Timing for main: time 2019-11-26_18:10:15 on domain   1:   29.17076 elapsed seconds
Timing for main: time 2019-11-26_18:10:30 on domain   1:    3.70852 elapsed seconds
Timing for main: time 2019-11-26_18:10:45 on domain   1:    3.70700 elapsed seconds
Timing for main: time 2019-11-26_18:11:00 on domain   1:    3.70982 elapsed seconds
Timing for main: time 2019-11-26_18:11:15 on domain   1:    3.70628 elapsed seconds
Timing for main: time 2019-11-26_18:11:30 on domain   1:    3.71021 elapsed seconds
Timing for main: time 2019-11-26_18:11:45 on domain   1:    3.69706 elapsed seconds
Timing for main: time 2019-11-26_18:12:00 on domain   1:    3.70071 elapsed seconds
Timing for main: time 2019-11-26_18:12:15 on domain   1:    3.71951 elapsed seconds
Timing for main: time 2019-11-26_18:12:30 on domain   1:    3.71162 elapsed seconds
Timing for main: time 2019-11-26_18:12:45 on domain   1:    3.70881 elapsed seconds
Timing for main: time 2019-11-26_18:13:00 on domain   1:    3.71070 elapsed seconds
Timing for main: time 2019-11-26_18:13:15 on domain   1:    3.69427 elapsed seconds
Timing for main: time 2019-11-26_18:13:30 on domain   1:    3.69785 elapsed seconds
Timing for main: time 2019-11-26_18:13:45 on domain   1:    3.72105 elapsed seconds
Timing for main: time 2019-11-26_18:14:00 on domain   1:    3.71322 elapsed seconds
Timing for main: time 2019-11-26_18:14:15 on domain   1:    3.71332 elapsed seconds
Timing for main: time 2019-11-26_18:14:30 on domain   1:    3.71534 elapsed seconds
Timing for main: time 2019-11-26_18:14:45 on domain   1:    3.72575 elapsed seconds
Timing for main: time 2019-11-26_18:15:00 on domain   1:    3.71711 elapsed seconds
Timing for main: time 2019-11-26_18:15:15 on domain   1:    3.72033 elapsed seconds
Timing for main: time 2019-11-26_18:15:30 on domain   1:    3.71927 elapsed seconds
Timing for main: time 2019-11-26_18:15:45 on domain   1:    3.72511 elapsed seconds
Timing for main: time 2019-11-26_18:16:00 on domain   1:    3.71905 elapsed seconds
Timing for main: time 2019-11-26_18:16:15 on domain   1:    3.71888 elapsed seconds
Timing for main: time 2019-11-26_18:16:30 on domain   1:    3.71822 elapsed seconds
Timing for main: time 2019-11-26_18:16:45 on domain   1:    3.72328 elapsed seconds
Timing for main: time 2019-11-26_18:17:00 on domain   1:    3.72149 elapsed seconds
Timing for main: time 2019-11-26_18:17:15 on domain   1:    3.72656 elapsed seconds
Timing for main: time 2019-11-26_18:17:30 on domain   1:    3.72470 elapsed seconds
Timing for main: time 2019-11-26_18:17:45 on domain   1:    3.72420 elapsed seconds
Timing for main: time 2019-11-26_18:18:00 on domain   1:    3.72620 elapsed seconds
Timing for main: time 2019-11-26_18:18:15 on domain   1:    3.73612 elapsed seconds
Timing for main: time 2019-11-26_18:18:30 on domain   1:    3.72709 elapsed seconds
Timing for main: time 2019-11-26_18:18:45 on domain   1:    3.72646 elapsed seconds
Timing for main: time 2019-11-26_18:19:00 on domain   1:    3.73023 elapsed seconds
Timing for main: time 2019-11-26_18:19:15 on domain   1:    3.74050 elapsed seconds
Timing for main: time 2019-11-26_18:19:30 on domain   1:    3.73321 elapsed seconds
Timing for main: time 2019-11-26_18:19:45 on domain   1:    3.73316 elapsed seconds
Timing for main: time 2019-11-26_18:20:00 on domain   1:    3.73564 elapsed seconds
Timing for main: time 2019-11-26_18:20:15 on domain   1:   29.52445 elapsed seconds
Timing for main: time 2019-11-26_18:20:30 on domain   1:    3.73664 elapsed seconds
Timing for main: time 2019-11-26_18:20:45 on domain   1:    3.73757 elapsed seconds
Timing for main: time 2019-11-26_18:21:00 on domain   1:    3.73680 elapsed seconds
Timing for main: time 2019-11-26_18:21:15 on domain   1:    3.73779 elapsed seconds
Timing for main: time 2019-11-26_18:21:30 on domain   1:    3.74174 elapsed seconds
Timing for main: time 2019-11-26_18:21:45 on domain   1:    3.74243 elapsed seconds
Timing for main: time 2019-11-26_18:22:00 on domain   1:    3.74562 elapsed seconds
Timing for main: time 2019-11-26_18:22:15 on domain   1:    3.74302 elapsed seconds
Timing for main: time 2019-11-26_18:22:30 on domain   1:    3.73610 elapsed seconds
Timing for main: time 2019-11-26_18:22:45 on domain   1:    3.74895 elapsed seconds
Timing for main: time 2019-11-26_18:23:00 on domain   1:    3.74668 elapsed seconds
Timing for main: time 2019-11-26_18:23:15 on domain   1:    3.75027 elapsed seconds
Timing for main: time 2019-11-26_18:23:30 on domain   1:    3.74503 elapsed seconds
Timing for main: time 2019-11-26_18:23:45 on domain   1:    3.75448 elapsed seconds
Timing for main: time 2019-11-26_18:24:00 on domain   1:    3.75129 elapsed seconds
Timing for main: time 2019-11-26_18:24:15 on domain   1:    3.75870 elapsed seconds
Timing for main: time 2019-11-26_18:24:30 on domain   1:    3.75656 elapsed seconds
Timing for main: time 2019-11-26_18:24:45 on domain   1:    3.75596 elapsed seconds
Timing for main: time 2019-11-26_18:25:00 on domain   1:    3.75399 elapsed seconds
Timing for main: time 2019-11-26_18:25:15 on domain   1:    3.76153 elapsed seconds
Timing for main: time 2019-11-26_18:25:30 on domain   1:    3.75821 elapsed seconds
Timing for main: time 2019-11-26_18:25:45 on domain   1:    3.76265 elapsed seconds
Timing for main: time 2019-11-26_18:26:00 on domain   1:    3.76309 elapsed seconds
Timing for main: time 2019-11-26_18:26:15 on domain   1:    3.76768 elapsed seconds
Timing for main: time 2019-11-26_18:26:30 on domain   1:    3.76586 elapsed seconds
Timing for main: time 2019-11-26_18:26:45 on domain   1:    3.76881 elapsed seconds
Timing for main: time 2019-11-26_18:27:00 on domain   1:    3.76687 elapsed seconds
Timing for main: time 2019-11-26_18:27:15 on domain   1:    3.76833 elapsed seconds
Timing for main: time 2019-11-26_18:27:30 on domain   1:    3.75363 elapsed seconds
Timing for main: time 2019-11-26_18:27:45 on domain   1:    3.75739 elapsed seconds
Timing for main: time 2019-11-26_18:28:00 on domain   1:    3.75879 elapsed seconds
Timing for main: time 2019-11-26_18:28:15 on domain   1:    3.76111 elapsed seconds
Timing for main: time 2019-11-26_18:28:30 on domain   1:    3.76465 elapsed seconds
Timing for main: time 2019-11-26_18:28:45 on domain   1:    3.77339 elapsed seconds
Timing for main: time 2019-11-26_18:29:00 on domain   1:    3.77529 elapsed seconds
Timing for main: time 2019-11-26_18:29:15 on domain   1:    3.77915 elapsed seconds
Timing for main: time 2019-11-26_18:29:30 on domain   1:    3.77667 elapsed seconds
Timing for main: time 2019-11-26_18:29:45 on domain   1:    3.78038 elapsed seconds
Timing for main: time 2019-11-26_18:30:00 on domain   1:    3.78031 elapsed seconds
Timing for main: time 2019-11-26_18:30:15 on domain   1:   29.93728 elapsed seconds
Timing for main: time 2019-11-26_18:30:30 on domain   1:    3.78440 elapsed seconds
Timing for main: time 2019-11-26_18:30:45 on domain   1:    3.78594 elapsed seconds
Timing for main: time 2019-11-26_18:31:00 on domain   1:    3.78971 elapsed seconds
Timing for main: time 2019-11-26_18:31:15 on domain   1:    3.79029 elapsed seconds
Timing for main: time 2019-11-26_18:31:30 on domain   1:    3.79309 elapsed seconds
Timing for main: time 2019-11-26_18:31:45 on domain   1:    3.79208 elapsed seconds
Timing for main: time 2019-11-26_18:32:00 on domain   1:    3.79712 elapsed seconds
Timing for main: time 2019-11-26_18:32:15 on domain   1:    3.79197 elapsed seconds
Timing for main: time 2019-11-26_18:32:30 on domain   1:    3.79852 elapsed seconds
Timing for main: time 2019-11-26_18:32:45 on domain   1:    3.79531 elapsed seconds
Timing for main: time 2019-11-26_18:33:00 on domain   1:    3.79772 elapsed seconds
Timing for main: time 2019-11-26_18:33:15 on domain   1:    3.79798 elapsed seconds
Timing for main: time 2019-11-26_18:33:30 on domain   1:    3.80442 elapsed seconds
Timing for main: time 2019-11-26_18:33:45 on domain   1:    3.80038 elapsed seconds
Timing for main: time 2019-11-26_18:34:00 on domain   1:    3.81060 elapsed seconds
Timing for main: time 2019-11-26_18:34:15 on domain   1:    3.80400 elapsed seconds
Timing for main: time 2019-11-26_18:34:30 on domain   1:    3.81026 elapsed seconds
Timing for main: time 2019-11-26_18:34:45 on domain   1:    3.80476 elapsed seconds
Timing for main: time 2019-11-26_18:35:00 on domain   1:    3.80781 elapsed seconds
Timing for main: time 2019-11-26_18:35:15 on domain   1:    3.81194 elapsed seconds
Timing for main: time 2019-11-26_18:35:30 on domain   1:    3.80999 elapsed seconds
Timing for main: time 2019-11-26_18:35:45 on domain   1:    3.80948 elapsed seconds
Timing for main: time 2019-11-26_18:36:00 on domain   1:    3.80982 elapsed seconds
Timing for main: time 2019-11-26_18:36:15 on domain   1:    3.81070 elapsed seconds
Timing for main: time 2019-11-26_18:36:30 on domain   1:    3.81425 elapsed seconds
Timing for main: time 2019-11-26_18:36:45 on domain   1:    3.81682 elapsed seconds
Timing for main: time 2019-11-26_18:37:00 on domain   1:    3.81655 elapsed seconds
Timing for main: time 2019-11-26_18:37:15 on domain   1:    3.81205 elapsed seconds
Timing for main: time 2019-11-26_18:37:30 on domain   1:    3.81787 elapsed seconds
Timing for main: time 2019-11-26_18:37:45 on domain   1:    3.81545 elapsed seconds
Timing for main: time 2019-11-26_18:38:00 on domain   1:    3.82367 elapsed seconds
Timing for main: time 2019-11-26_18:38:15 on domain   1:    3.81628 elapsed seconds
Timing for main: time 2019-11-26_18:38:30 on domain   1:    3.81831 elapsed seconds
Timing for main: time 2019-11-26_18:38:45 on domain   1:    3.81879 elapsed seconds
Timing for main: time 2019-11-26_18:39:00 on domain   1:    3.82124 elapsed seconds
Timing for main: time 2019-11-26_18:39:15 on domain   1:    3.81961 elapsed seconds
Timing for main: time 2019-11-26_18:39:30 on domain   1:    3.82230 elapsed seconds
Timing for main: time 2019-11-26_18:39:45 on domain   1:    3.82154 elapsed seconds
Timing for main: time 2019-11-26_18:40:00 on domain   1:    3.83276 elapsed seconds
Timing for main: time 2019-11-26_18:40:15 on domain   1:   30.36217 elapsed seconds
Timing for main: time 2019-11-26_18:40:30 on domain   1:    3.82677 elapsed seconds
Timing for main: time 2019-11-26_18:40:45 on domain   1:    3.82792 elapsed seconds
Timing for main: time 2019-11-26_18:41:00 on domain   1:    3.83238 elapsed seconds
Timing for main: time 2019-11-26_18:41:15 on domain   1:    3.83295 elapsed seconds
Timing for main: time 2019-11-26_18:41:30 on domain   1:    3.83159 elapsed seconds
Timing for main: time 2019-11-26_18:41:45 on domain   1:    3.83167 elapsed seconds
Timing for main: time 2019-11-26_18:42:00 on domain   1:    3.83875 elapsed seconds
Timing for main: time 2019-11-26_18:42:15 on domain   1:    3.83477 elapsed seconds
Timing for main: time 2019-11-26_18:42:30 on domain   1:    3.83514 elapsed seconds
Timing for main: time 2019-11-26_18:42:45 on domain   1:    3.83711 elapsed seconds
Timing for main: time 2019-11-26_18:43:00 on domain   1:    3.83904 elapsed seconds
Timing for main: time 2019-11-26_18:43:15 on domain   1:    3.84019 elapsed seconds
Timing for main: time 2019-11-26_18:43:30 on domain   1:    3.84493 elapsed seconds
Timing for main: time 2019-11-26_18:43:45 on domain   1:    3.84126 elapsed seconds
Timing for main: time 2019-11-26_18:44:00 on domain   1:    3.84256 elapsed seconds
Timing for main: time 2019-11-26_18:44:15 on domain   1:    3.85088 elapsed seconds
Timing for main: time 2019-11-26_18:44:30 on domain   1:    3.84331 elapsed seconds
Timing for main: time 2019-11-26_18:44:45 on domain   1:    3.84265 elapsed seconds
Timing for main: time 2019-11-26_18:45:00 on domain   1:    3.85170 elapsed seconds
Timing for main: time 2019-11-26_18:45:15 on domain   1:    3.84876 elapsed seconds
Timing for main: time 2019-11-26_18:45:30 on domain   1:    3.84721 elapsed seconds
Timing for main: time 2019-11-26_18:45:45 on domain   1:    3.85105 elapsed seconds
Timing for main: time 2019-11-26_18:46:00 on domain   1:    3.86230 elapsed seconds
Timing for main: time 2019-11-26_18:46:15 on domain   1:    3.85864 elapsed seconds
Timing for main: time 2019-11-26_18:46:30 on domain   1:    3.85549 elapsed seconds
Timing for main: time 2019-11-26_18:46:45 on domain   1:    3.86234 elapsed seconds
Timing for main: time 2019-11-26_18:47:00 on domain   1:    3.86099 elapsed seconds
Timing for main: time 2019-11-26_18:47:15 on domain   1:    3.86850 elapsed seconds
Timing for main: time 2019-11-26_18:47:30 on domain   1:    3.86435 elapsed seconds
Timing for main: time 2019-11-26_18:47:45 on domain   1:    3.87063 elapsed seconds
Timing for main: time 2019-11-26_18:48:00 on domain   1:    3.86227 elapsed seconds
Timing for main: time 2019-11-26_18:48:15 on domain   1:    3.86568 elapsed seconds
Timing for main: time 2019-11-26_18:48:30 on domain   1:    3.86476 elapsed seconds
Timing for main: time 2019-11-26_18:48:45 on domain   1:    3.86885 elapsed seconds
Timing for main: time 2019-11-26_18:49:00 on domain   1:    3.86836 elapsed seconds
Timing for main: time 2019-11-26_18:49:15 on domain   1:    3.86824 elapsed seconds
Timing for main: time 2019-11-26_18:49:30 on domain   1:    3.86750 elapsed seconds
Timing for main: time 2019-11-26_18:49:45 on domain   1:    3.87159 elapsed seconds
Timing for main: time 2019-11-26_18:50:00 on domain   1:    3.87171 elapsed seconds
Timing for main: time 2019-11-26_18:50:15 on domain   1:   30.71483 elapsed seconds
Timing for main: time 2019-11-26_18:50:30 on domain   1:    3.86950 elapsed seconds
Timing for main: time 2019-11-26_18:50:45 on domain   1:    3.87476 elapsed seconds
Timing for main: time 2019-11-26_18:51:00 on domain   1:    3.87624 elapsed seconds
Timing for main: time 2019-11-26_18:51:15 on domain   1:    3.87023 elapsed seconds
Timing for main: time 2019-11-26_18:51:30 on domain   1:    3.87347 elapsed seconds
Timing for main: time 2019-11-26_18:51:45 on domain   1:    3.87963 elapsed seconds
Timing for main: time 2019-11-26_18:52:00 on domain   1:    3.87944 elapsed seconds
Timing for main: time 2019-11-26_18:52:15 on domain   1:    3.88114 elapsed seconds
Timing for main: time 2019-11-26_18:52:30 on domain   1:    3.88013 elapsed seconds
Timing for main: time 2019-11-26_18:52:45 on domain   1:    3.88086 elapsed seconds
Timing for main: time 2019-11-26_18:53:00 on domain   1:    3.88323 elapsed seconds
Timing for main: time 2019-11-26_18:53:15 on domain   1:    3.88234 elapsed seconds
Timing for main: time 2019-11-26_18:53:30 on domain   1:    3.88248 elapsed seconds
Timing for main: time 2019-11-26_18:53:45 on domain   1:    3.89038 elapsed seconds
Timing for main: time 2019-11-26_18:54:00 on domain   1:    3.88359 elapsed seconds
Timing for main: time 2019-11-26_18:54:15 on domain   1:    3.88715 elapsed seconds
Timing for main: time 2019-11-26_18:54:30 on domain   1:    3.87513 elapsed seconds
Timing for main: time 2019-11-26_18:54:45 on domain   1:    3.88709 elapsed seconds
Timing for main: time 2019-11-26_18:55:00 on domain   1:    3.88791 elapsed seconds
Timing for main: time 2019-11-26_18:55:15 on domain   1:    3.89186 elapsed seconds
Timing for main: time 2019-11-26_18:55:30 on domain   1:    3.88947 elapsed seconds
Timing for main: time 2019-11-26_18:55:45 on domain   1:    3.89545 elapsed seconds
Timing for main: time 2019-11-26_18:56:00 on domain   1:    3.89916 elapsed seconds
Timing for main: time 2019-11-26_18:56:15 on domain   1:    3.90071 elapsed seconds
Timing for main: time 2019-11-26_18:56:30 on domain   1:    3.89938 elapsed seconds
Timing for main: time 2019-11-26_18:56:45 on domain   1:    3.89466 elapsed seconds
Timing for main: time 2019-11-26_18:57:00 on domain   1:    3.89946 elapsed seconds
Timing for main: time 2019-11-26_18:57:15 on domain   1:    3.90095 elapsed seconds
Timing for main: time 2019-11-26_18:57:30 on domain   1:    3.90378 elapsed seconds
Timing for main: time 2019-11-26_18:57:45 on domain   1:    3.90506 elapsed seconds
Timing for main: time 2019-11-26_18:58:00 on domain   1:    3.90225 elapsed seconds
Timing for main: time 2019-11-26_18:58:15 on domain   1:    3.90333 elapsed seconds
Timing for main: time 2019-11-26_18:58:30 on domain   1:    3.90652 elapsed seconds
Timing for main: time 2019-11-26_18:58:45 on domain   1:    3.90282 elapsed seconds
Timing for main: time 2019-11-26_18:59:00 on domain   1:    3.90486 elapsed seconds
Timing for main: time 2019-11-26_18:59:15 on domain   1:    3.90748 elapsed seconds
Timing for main: time 2019-11-26_18:59:30 on domain   1:    3.90594 elapsed seconds
Timing for main: time 2019-11-26_18:59:45 on domain   1:    3.91343 elapsed seconds
Timing for main: time 2019-11-26_19:00:00 on domain   1:    3.90644 elapsed seconds
 mediation_integrate.G        1249 DATASET=HISTORY
 mediation_integrate.G        1250  grid%id            1  grid%oid            2
Timing for Writing wrfout_d01_2019-11-26_19:00:00 for domain        1:    4.43014 elapsed seconds
Timing for main: time 2019-11-26_19:00:15 on domain   1:   35.44865 elapsed seconds
Timing for main: time 2019-11-26_19:00:30 on domain   1:    3.91075 elapsed seconds
Timing for main: time 2019-11-26_19:00:45 on domain   1:    3.91197 elapsed seconds
Timing for main: time 2019-11-26_19:01:00 on domain   1:    3.90839 elapsed seconds
Timing for main: time 2019-11-26_19:01:15 on domain   1:    3.91427 elapsed seconds
Timing for main: time 2019-11-26_19:01:30 on domain   1:    3.90665 elapsed seconds
Timing for main: time 2019-11-26_19:01:45 on domain   1:    3.91568 elapsed seconds
Timing for main: time 2019-11-26_19:02:00 on domain   1:    3.91005 elapsed seconds
Timing for main: time 2019-11-26_19:02:15 on domain   1:    3.91907 elapsed seconds
Timing for main: time 2019-11-26_19:02:30 on domain   1:    3.91709 elapsed seconds
Timing for main: time 2019-11-26_19:02:45 on domain   1:    3.92534 elapsed seconds
Timing for main: time 2019-11-26_19:03:00 on domain   1:    3.91627 elapsed seconds
Timing for main: time 2019-11-26_19:03:15 on domain   1:    3.91774 elapsed seconds
Timing for main: time 2019-11-26_19:03:30 on domain   1:    3.91932 elapsed seconds
Timing for main: time 2019-11-26_19:03:45 on domain   1:    3.92193 elapsed seconds
Timing for main: time 2019-11-26_19:04:00 on domain   1:    3.92047 elapsed seconds
Timing for main: time 2019-11-26_19:04:15 on domain   1:    3.92207 elapsed seconds
Timing for main: time 2019-11-26_19:04:30 on domain   1:    3.92913 elapsed seconds
Timing for main: time 2019-11-26_19:04:45 on domain   1:    3.92249 elapsed seconds
Timing for main: time 2019-11-26_19:05:00 on domain   1:    3.92798 elapsed seconds
Timing for main: time 2019-11-26_19:05:15 on domain   1:    3.92512 elapsed seconds
Timing for main: time 2019-11-26_19:05:30 on domain   1:    3.92829 elapsed seconds
Timing for main: time 2019-11-26_19:05:45 on domain   1:    3.92948 elapsed seconds
Timing for main: time 2019-11-26_19:06:00 on domain   1:    3.93474 elapsed seconds
Timing for main: time 2019-11-26_19:06:15 on domain   1:    3.92856 elapsed seconds
Timing for main: time 2019-11-26_19:06:30 on domain   1:    3.93155 elapsed seconds
Timing for main: time 2019-11-26_19:06:45 on domain   1:    3.93352 elapsed seconds
Timing for main: time 2019-11-26_19:07:00 on domain   1:    3.93408 elapsed seconds
Timing for main: time 2019-11-26_19:07:15 on domain   1:    3.93778 elapsed seconds
Timing for main: time 2019-11-26_19:07:30 on domain   1:    3.93513 elapsed seconds
Timing for main: time 2019-11-26_19:07:45 on domain   1:    3.93623 elapsed seconds
Timing for main: time 2019-11-26_19:08:00 on domain   1:    3.93660 elapsed seconds
Timing for main: time 2019-11-26_19:08:15 on domain   1:    3.93950 elapsed seconds
Timing for main: time 2019-11-26_19:08:30 on domain   1:    3.93756 elapsed seconds
Timing for main: time 2019-11-26_19:08:45 on domain   1:    3.94237 elapsed seconds
Timing for main: time 2019-11-26_19:09:00 on domain   1:    3.93846 elapsed seconds
Timing for main: time 2019-11-26_19:09:15 on domain   1:    3.92598 elapsed seconds
Timing for main: time 2019-11-26_19:09:30 on domain   1:    3.92855 elapsed seconds
Timing for main: time 2019-11-26_19:09:45 on domain   1:    3.93051 elapsed seconds
Timing for main: time 2019-11-26_19:10:00 on domain   1:    3.93010 elapsed seconds
Timing for main: time 2019-11-26_19:10:15 on domain   1:   31.28506 elapsed seconds
Timing for main: time 2019-11-26_19:10:30 on domain   1:    3.93646 elapsed seconds
Timing for main: time 2019-11-26_19:10:45 on domain   1:    3.93533 elapsed seconds
Timing for main: time 2019-11-26_19:11:00 on domain   1:    3.94502 elapsed seconds
Timing for main: time 2019-11-26_19:11:15 on domain   1:    3.93416 elapsed seconds
Timing for main: time 2019-11-26_19:11:30 on domain   1:    3.94025 elapsed seconds
Timing for main: time 2019-11-26_19:11:45 on domain   1:    3.94275 elapsed seconds
Timing for main: time 2019-11-26_19:12:00 on domain   1:    3.94618 elapsed seconds
Timing for main: time 2019-11-26_19:12:15 on domain   1:    3.94380 elapsed seconds
Timing for main: time 2019-11-26_19:12:30 on domain   1:    3.94191 elapsed seconds
Timing for main: time 2019-11-26_19:12:45 on domain   1:    3.94256 elapsed seconds
Timing for main: time 2019-11-26_19:13:00 on domain   1:    3.94384 elapsed seconds
Timing for main: time 2019-11-26_19:13:15 on domain   1:    3.94315 elapsed seconds
Timing for main: time 2019-11-26_19:13:30 on domain   1:    3.94417 elapsed seconds
Timing for main: time 2019-11-26_19:13:45 on domain   1:    3.94591 elapsed seconds
Timing for main: time 2019-11-26_19:14:00 on domain   1:    3.94723 elapsed seconds
Timing for main: time 2019-11-26_19:14:15 on domain   1:    3.94814 elapsed seconds
Timing for main: time 2019-11-26_19:14:30 on domain   1:    3.95264 elapsed seconds
Timing for main: time 2019-11-26_19:14:45 on domain   1:    3.94767 elapsed seconds
Timing for main: time 2019-11-26_19:15:00 on domain   1:    3.95480 elapsed seconds
Timing for main: time 2019-11-26_19:15:15 on domain   1:    3.96059 elapsed seconds
Timing for main: time 2019-11-26_19:15:30 on domain   1:    3.94937 elapsed seconds
Timing for main: time 2019-11-26_19:15:45 on domain   1:    3.94922 elapsed seconds
Timing for main: time 2019-11-26_19:16:00 on domain   1:    3.95283 elapsed seconds
Timing for main: time 2019-11-26_19:16:15 on domain   1:    3.95269 elapsed seconds
Timing for main: time 2019-11-26_19:16:30 on domain   1:    3.95246 elapsed seconds
Timing for main: time 2019-11-26_19:16:45 on domain   1:    3.95750 elapsed seconds
Timing for main: time 2019-11-26_19:17:00 on domain   1:    3.95982 elapsed seconds
Timing for main: time 2019-11-26_19:17:15 on domain   1:    3.95378 elapsed seconds
Timing for main: time 2019-11-26_19:17:30 on domain   1:    3.96119 elapsed seconds
Timing for main: time 2019-11-26_19:17:45 on domain   1:    3.96171 elapsed seconds
Timing for main: time 2019-11-26_19:18:00 on domain   1:    3.95555 elapsed seconds
Timing for main: time 2019-11-26_19:18:15 on domain   1:    3.96037 elapsed seconds
Timing for main: time 2019-11-26_19:18:30 on domain   1:    3.96088 elapsed seconds
Timing for main: time 2019-11-26_19:18:45 on domain   1:    3.95719 elapsed seconds
Timing for main: time 2019-11-26_19:19:00 on domain   1:    3.95885 elapsed seconds
Timing for main: time 2019-11-26_19:19:15 on domain   1:    3.96239 elapsed seconds
Timing for main: time 2019-11-26_19:19:30 on domain   1:    3.96297 elapsed seconds
Timing for main: time 2019-11-26_19:19:45 on domain   1:    3.96377 elapsed seconds
Timing for main: time 2019-11-26_19:20:00 on domain   1:    3.96398 elapsed seconds
Timing for main: time 2019-11-26_19:20:15 on domain   1:   31.49979 elapsed seconds
Timing for main: time 2019-11-26_19:20:30 on domain   1:    3.96156 elapsed seconds
Timing for main: time 2019-11-26_19:20:45 on domain   1:    3.96421 elapsed seconds
Timing for main: time 2019-11-26_19:21:00 on domain   1:    3.97826 elapsed seconds
Timing for main: time 2019-11-26_19:21:15 on domain   1:    3.96558 elapsed seconds
Timing for main: time 2019-11-26_19:21:30 on domain   1:    3.96318 elapsed seconds
Timing for main: time 2019-11-26_19:21:45 on domain   1:    3.96463 elapsed seconds
Timing for main: time 2019-11-26_19:22:00 on domain   1:    3.96426 elapsed seconds
Timing for main: time 2019-11-26_19:22:15 on domain   1:    3.96521 elapsed seconds
Timing for main: time 2019-11-26_19:22:30 on domain   1:    3.96546 elapsed seconds
Timing for main: time 2019-11-26_19:22:45 on domain   1:    3.97003 elapsed seconds
Timing for main: time 2019-11-26_19:23:00 on domain   1:    3.96896 elapsed seconds
Timing for main: time 2019-11-26_19:23:15 on domain   1:    3.97099 elapsed seconds
Timing for main: time 2019-11-26_19:23:30 on domain   1:    3.96698 elapsed seconds
Timing for main: time 2019-11-26_19:23:45 on domain   1:    3.97075 elapsed seconds
Timing for main: time 2019-11-26_19:24:00 on domain   1:    3.97309 elapsed seconds
Timing for main: time 2019-11-26_19:24:15 on domain   1:    3.97471 elapsed seconds
Timing for main: time 2019-11-26_19:24:30 on domain   1:    3.96705 elapsed seconds
Timing for main: time 2019-11-26_19:24:45 on domain   1:    3.97424 elapsed seconds
Timing for main: time 2019-11-26_19:25:00 on domain   1:    3.97189 elapsed seconds
Timing for main: time 2019-11-26_19:25:15 on domain   1:    3.97495 elapsed seconds
Timing for main: time 2019-11-26_19:25:30 on domain   1:    3.97508 elapsed seconds
Timing for main: time 2019-11-26_19:25:45 on domain   1:    3.97459 elapsed seconds
Timing for main: time 2019-11-26_19:26:00 on domain   1:    3.97888 elapsed seconds
Timing for main: time 2019-11-26_19:26:15 on domain   1:    3.97739 elapsed seconds
Timing for main: time 2019-11-26_19:26:30 on domain   1:    3.98296 elapsed seconds
Timing for main: time 2019-11-26_19:26:45 on domain   1:    3.98021 elapsed seconds
Timing for main: time 2019-11-26_19:27:00 on domain   1:    3.97599 elapsed seconds
Timing for main: time 2019-11-26_19:27:15 on domain   1:    3.98260 elapsed seconds
Timing for main: time 2019-11-26_19:27:30 on domain   1:    3.98032 elapsed seconds
Timing for main: time 2019-11-26_19:27:45 on domain   1:    3.98366 elapsed seconds
Timing for main: time 2019-11-26_19:28:00 on domain   1:    3.98670 elapsed seconds
Timing for main: time 2019-11-26_19:28:15 on domain   1:    3.98550 elapsed seconds
Timing for main: time 2019-11-26_19:28:30 on domain   1:    3.98083 elapsed seconds
Timing for main: time 2019-11-26_19:28:45 on domain   1:    3.98039 elapsed seconds
Timing for main: time 2019-11-26_19:29:00 on domain   1:    3.97880 elapsed seconds
Timing for main: time 2019-11-26_19:29:15 on domain   1:    3.99026 elapsed seconds
Timing for main: time 2019-11-26_19:29:30 on domain   1:    3.98613 elapsed seconds
Timing for main: time 2019-11-26_19:29:45 on domain   1:    3.98940 elapsed seconds
Timing for main: time 2019-11-26_19:30:00 on domain   1:    3.98558 elapsed seconds
Timing for main: time 2019-11-26_19:30:15 on domain   1:   31.66917 elapsed seconds
Timing for main: time 2019-11-26_19:30:30 on domain   1:    3.98589 elapsed seconds
Timing for main: time 2019-11-26_19:30:45 on domain   1:    3.98906 elapsed seconds
Timing for main: time 2019-11-26_19:31:00 on domain   1:    3.99906 elapsed seconds
Timing for main: time 2019-11-26_19:31:15 on domain   1:    3.99054 elapsed seconds
Timing for main: time 2019-11-26_19:31:30 on domain   1:    3.98946 elapsed seconds
Timing for main: time 2019-11-26_19:31:45 on domain   1:    3.99181 elapsed seconds
Timing for main: time 2019-11-26_19:32:00 on domain   1:    3.99196 elapsed seconds
Timing for main: time 2019-11-26_19:32:15 on domain   1:    3.98615 elapsed seconds
Timing for main: time 2019-11-26_19:32:30 on domain   1:    3.99475 elapsed seconds
Timing for main: time 2019-11-26_19:32:45 on domain   1:    3.99220 elapsed seconds
Timing for main: time 2019-11-26_19:33:00 on domain   1:    3.99289 elapsed seconds
Timing for main: time 2019-11-26_19:33:15 on domain   1:    3.98683 elapsed seconds
Timing for main: time 2019-11-26_19:33:30 on domain   1:    3.99643 elapsed seconds
Timing for main: time 2019-11-26_19:33:45 on domain   1:    3.98966 elapsed seconds
Timing for main: time 2019-11-26_19:34:00 on domain   1:    3.99171 elapsed seconds
Timing for main: time 2019-11-26_19:34:15 on domain   1:    3.98735 elapsed seconds
Timing for main: time 2019-11-26_19:34:30 on domain   1:    3.99155 elapsed seconds
Timing for main: time 2019-11-26_19:34:45 on domain   1:    3.99561 elapsed seconds
Timing for main: time 2019-11-26_19:35:00 on domain   1:    3.99409 elapsed seconds
Timing for main: time 2019-11-26_19:35:15 on domain   1:    3.99559 elapsed seconds
Timing for main: time 2019-11-26_19:35:30 on domain   1:    3.99321 elapsed seconds
Timing for main: time 2019-11-26_19:35:45 on domain   1:    3.99508 elapsed seconds
Timing for main: time 2019-11-26_19:36:00 on domain   1:    3.99437 elapsed seconds
Timing for main: time 2019-11-26_19:36:15 on domain   1:    3.99530 elapsed seconds
Timing for main: time 2019-11-26_19:36:30 on domain   1:    3.99651 elapsed seconds
Timing for main: time 2019-11-26_19:36:45 on domain   1:    3.99843 elapsed seconds
Timing for main: time 2019-11-26_19:37:00 on domain   1:    3.99862 elapsed seconds
Timing for main: time 2019-11-26_19:37:15 on domain   1:    4.01256 elapsed seconds
Timing for main: time 2019-11-26_19:37:30 on domain   1:    4.00783 elapsed seconds
Timing for main: time 2019-11-26_19:37:45 on domain   1:    4.00874 elapsed seconds
Timing for main: time 2019-11-26_19:38:00 on domain   1:    4.00312 elapsed seconds
Timing for main: time 2019-11-26_19:38:15 on domain   1:    3.99638 elapsed seconds
Timing for main: time 2019-11-26_19:38:30 on domain   1:    3.99944 elapsed seconds
Timing for main: time 2019-11-26_19:38:45 on domain   1:    3.99935 elapsed seconds
Timing for main: time 2019-11-26_19:39:00 on domain   1:    4.00496 elapsed seconds
Timing for main: time 2019-11-26_19:39:15 on domain   1:    3.99946 elapsed seconds
Timing for main: time 2019-11-26_19:39:30 on domain   1:    3.99858 elapsed seconds
Timing for main: time 2019-11-26_19:39:45 on domain   1:    4.00092 elapsed seconds
Timing for main: time 2019-11-26_19:40:00 on domain   1:    3.99643 elapsed seconds
Timing for main: time 2019-11-26_19:40:15 on domain   1:   31.80043 elapsed seconds
Timing for main: time 2019-11-26_19:40:30 on domain   1:    3.99897 elapsed seconds
Timing for main: time 2019-11-26_19:40:45 on domain   1:    4.00431 elapsed seconds
Timing for main: time 2019-11-26_19:41:00 on domain   1:    4.00329 elapsed seconds
Timing for main: time 2019-11-26_19:41:15 on domain   1:    4.00333 elapsed seconds
Timing for main: time 2019-11-26_19:41:30 on domain   1:    3.99478 elapsed seconds
Timing for main: time 2019-11-26_19:41:45 on domain   1:    3.99865 elapsed seconds
Timing for main: time 2019-11-26_19:42:00 on domain   1:    3.99862 elapsed seconds
Timing for main: time 2019-11-26_19:42:15 on domain   1:    4.00412 elapsed seconds
Timing for main: time 2019-11-26_19:42:30 on domain   1:    4.00410 elapsed seconds
Timing for main: time 2019-11-26_19:42:45 on domain   1:    4.00489 elapsed seconds
Timing for main: time 2019-11-26_19:43:00 on domain   1:    4.00348 elapsed seconds
Timing for main: time 2019-11-26_19:43:15 on domain   1:    4.00174 elapsed seconds
Timing for main: time 2019-11-26_19:43:30 on domain   1:    4.00595 elapsed seconds
Timing for main: time 2019-11-26_19:43:45 on domain   1:    4.00860 elapsed seconds
Timing for main: time 2019-11-26_19:44:00 on domain   1:    4.00346 elapsed seconds
Timing for main: time 2019-11-26_19:44:15 on domain   1:    4.00505 elapsed seconds
Timing for main: time 2019-11-26_19:44:30 on domain   1:    4.00535 elapsed seconds
Timing for main: time 2019-11-26_19:44:45 on domain   1:    3.99978 elapsed seconds
Timing for main: time 2019-11-26_19:45:00 on domain   1:    4.00367 elapsed seconds
Timing for main: time 2019-11-26_19:45:15 on domain   1:    4.00403 elapsed seconds
Timing for main: time 2019-11-26_19:45:30 on domain   1:    4.00477 elapsed seconds
Timing for main: time 2019-11-26_19:45:45 on domain   1:    4.00277 elapsed seconds
Timing for main: time 2019-11-26_19:46:00 on domain   1:    4.01035 elapsed seconds
Timing for main: time 2019-11-26_19:46:15 on domain   1:    4.00515 elapsed seconds
Timing for main: time 2019-11-26_19:46:30 on domain   1:    4.00612 elapsed seconds
Timing for main: time 2019-11-26_19:46:45 on domain   1:    4.01052 elapsed seconds
Timing for main: time 2019-11-26_19:47:00 on domain   1:    4.00727 elapsed seconds
Timing for main: time 2019-11-26_19:47:15 on domain   1:    4.01214 elapsed seconds
Timing for main: time 2019-11-26_19:47:30 on domain   1:    4.00984 elapsed seconds
Timing for main: time 2019-11-26_19:47:45 on domain   1:    4.00102 elapsed seconds
Timing for main: time 2019-11-26_19:48:00 on domain   1:    4.00694 elapsed seconds
Timing for main: time 2019-11-26_19:48:15 on domain   1:    4.01024 elapsed seconds
Timing for main: time 2019-11-26_19:48:30 on domain   1:    4.00999 elapsed seconds
Timing for main: time 2019-11-26_19:48:45 on domain   1:    4.00879 elapsed seconds
Timing for main: time 2019-11-26_19:49:00 on domain   1:    4.00926 elapsed seconds
Timing for main: time 2019-11-26_19:49:15 on domain   1:    4.00655 elapsed seconds
Timing for main: time 2019-11-26_19:49:30 on domain   1:    4.01382 elapsed seconds
Timing for main: time 2019-11-26_19:49:45 on domain   1:    4.00639 elapsed seconds
Timing for main: time 2019-11-26_19:50:00 on domain   1:    4.00277 elapsed seconds
Timing for main: time 2019-11-26_19:50:15 on domain   1:   31.82829 elapsed seconds
Timing for main: time 2019-11-26_19:50:30 on domain   1:    4.00223 elapsed seconds
Timing for main: time 2019-11-26_19:50:45 on domain   1:    4.00580 elapsed seconds
Timing for main: time 2019-11-26_19:51:00 on domain   1:    4.00475 elapsed seconds
Timing for main: time 2019-11-26_19:51:15 on domain   1:    4.00975 elapsed seconds
Timing for main: time 2019-11-26_19:51:30 on domain   1:    4.00421 elapsed seconds
Timing for main: time 2019-11-26_19:51:45 on domain   1:    4.00417 elapsed seconds
Timing for main: time 2019-11-26_19:52:00 on domain   1:    4.00251 elapsed seconds
Timing for main: time 2019-11-26_19:52:15 on domain   1:    4.00523 elapsed seconds
Timing for main: time 2019-11-26_19:52:30 on domain   1:    4.00640 elapsed seconds
Timing for main: time 2019-11-26_19:52:45 on domain   1:    4.00497 elapsed seconds
Timing for main: time 2019-11-26_19:53:00 on domain   1:    4.00445 elapsed seconds
Timing for main: time 2019-11-26_19:53:15 on domain   1:    4.00528 elapsed seconds
Timing for main: time 2019-11-26_19:53:30 on domain   1:    4.00708 elapsed seconds
Timing for main: time 2019-11-26_19:53:45 on domain   1:    4.01040 elapsed seconds
Timing for main: time 2019-11-26_19:54:00 on domain   1:    4.00620 elapsed seconds
Timing for main: time 2019-11-26_19:54:15 on domain   1:    4.00821 elapsed seconds
Timing for main: time 2019-11-26_19:54:30 on domain   1:    4.00697 elapsed seconds
Timing for main: time 2019-11-26_19:54:45 on domain   1:    4.01093 elapsed seconds
Timing for main: time 2019-11-26_19:55:00 on domain   1:    4.00448 elapsed seconds
Timing for main: time 2019-11-26_19:55:15 on domain   1:    4.00751 elapsed seconds
Timing for main: time 2019-11-26_19:55:30 on domain   1:    4.00774 elapsed seconds
Timing for main: time 2019-11-26_19:55:45 on domain   1:    4.00690 elapsed seconds
Timing for main: time 2019-11-26_19:56:00 on domain   1:    4.00737 elapsed seconds
Timing for main: time 2019-11-26_19:56:15 on domain   1:    4.00548 elapsed seconds
Timing for main: time 2019-11-26_19:56:30 on domain   1:    4.00984 elapsed seconds
Timing for main: time 2019-11-26_19:56:45 on domain   1:    4.00893 elapsed seconds
Timing for main: time 2019-11-26_19:57:00 on domain   1:    4.01056 elapsed seconds
Timing for main: time 2019-11-26_19:57:15 on domain   1:    4.00810 elapsed seconds
Timing for main: time 2019-11-26_19:57:30 on domain   1:    4.01102 elapsed seconds
Timing for main: time 2019-11-26_19:57:45 on domain   1:    4.00880 elapsed seconds
Timing for main: time 2019-11-26_19:58:00 on domain   1:    4.00680 elapsed seconds
Timing for main: time 2019-11-26_19:58:15 on domain   1:    4.01217 elapsed seconds
Timing for main: time 2019-11-26_19:58:30 on domain   1:    4.00889 elapsed seconds
Timing for main: time 2019-11-26_19:58:45 on domain   1:    4.00813 elapsed seconds
Timing for main: time 2019-11-26_19:59:00 on domain   1:    4.01061 elapsed seconds
Timing for main: time 2019-11-26_19:59:15 on domain   1:    4.01420 elapsed seconds
Timing for main: time 2019-11-26_19:59:30 on domain   1:    4.01113 elapsed seconds
Timing for main: time 2019-11-26_19:59:45 on domain   1:    4.01247 elapsed seconds
Timing for main: time 2019-11-26_20:00:00 on domain   1:    4.00760 elapsed seconds
 mediation_integrate.G        1249 DATASET=HISTORY
 mediation_integrate.G        1250  grid%id            1  grid%oid            2
Timing for Writing wrfout_d01_2019-11-26_20:00:00 for domain        1:    4.36279 elapsed seconds
Timing for main: time 2019-11-26_20:00:15 on domain   1:   36.37319 elapsed seconds
Timing for main: time 2019-11-26_20:00:30 on domain   1:    4.03370 elapsed seconds
Timing for main: time 2019-11-26_20:00:45 on domain   1:    4.01546 elapsed seconds
Timing for main: time 2019-11-26_20:01:00 on domain   1:    4.01992 elapsed seconds
Timing for main: time 2019-11-26_20:01:15 on domain   1:    4.01459 elapsed seconds
Timing for main: time 2019-11-26_20:01:30 on domain   1:    4.01724 elapsed seconds
Timing for main: time 2019-11-26_20:01:45 on domain   1:    4.01583 elapsed seconds
Timing for main: time 2019-11-26_20:02:00 on domain   1:    4.03328 elapsed seconds
Timing for main: time 2019-11-26_20:02:15 on domain   1:    4.02432 elapsed seconds
Timing for main: time 2019-11-26_20:02:30 on domain   1:    4.03288 elapsed seconds
Timing for main: time 2019-11-26_20:02:45 on domain   1:    4.02629 elapsed seconds
Timing for main: time 2019-11-26_20:03:00 on domain   1:    4.03026 elapsed seconds
Timing for main: time 2019-11-26_20:03:15 on domain   1:    4.02457 elapsed seconds
Timing for main: time 2019-11-26_20:03:30 on domain   1:    4.02745 elapsed seconds
Timing for main: time 2019-11-26_20:03:45 on domain   1:    4.02618 elapsed seconds
Timing for main: time 2019-11-26_20:04:00 on domain   1:    4.02964 elapsed seconds
Timing for main: time 2019-11-26_20:04:15 on domain   1:    4.02435 elapsed seconds
Timing for main: time 2019-11-26_20:04:30 on domain   1:    4.02807 elapsed seconds
Timing for main: time 2019-11-26_20:04:45 on domain   1:    4.02325 elapsed seconds
Timing for main: time 2019-11-26_20:05:00 on domain   1:    4.03572 elapsed seconds
Timing for main: time 2019-11-26_20:05:15 on domain   1:    4.02278 elapsed seconds
Timing for main: time 2019-11-26_20:05:30 on domain   1:    4.03039 elapsed seconds
Timing for main: time 2019-11-26_20:05:45 on domain   1:    4.02475 elapsed seconds
Timing for main: time 2019-11-26_20:06:00 on domain   1:    4.03140 elapsed seconds
Timing for main: time 2019-11-26_20:06:15 on domain   1:    4.02530 elapsed seconds
Timing for main: time 2019-11-26_20:06:30 on domain   1:    4.03403 elapsed seconds
Timing for main: time 2019-11-26_20:06:45 on domain   1:    4.02578 elapsed seconds
Timing for main: time 2019-11-26_20:07:00 on domain   1:    4.03300 elapsed seconds
Timing for main: time 2019-11-26_20:07:15 on domain   1:    4.02731 elapsed seconds
Timing for main: time 2019-11-26_20:07:30 on domain   1:    4.02943 elapsed seconds
Timing for main: time 2019-11-26_20:07:45 on domain   1:    4.03097 elapsed seconds
Timing for main: time 2019-11-26_20:08:00 on domain   1:    4.03196 elapsed seconds
Timing for main: time 2019-11-26_20:08:15 on domain   1:    4.02989 elapsed seconds
Timing for main: time 2019-11-26_20:08:30 on domain   1:    4.03098 elapsed seconds
Timing for main: time 2019-11-26_20:08:45 on domain   1:    4.03235 elapsed seconds
Timing for main: time 2019-11-26_20:09:00 on domain   1:    4.03427 elapsed seconds
Timing for main: time 2019-11-26_20:09:15 on domain   1:    4.02844 elapsed seconds
Timing for main: time 2019-11-26_20:09:30 on domain   1:    4.02257 elapsed seconds
Timing for main: time 2019-11-26_20:09:45 on domain   1:    4.02551 elapsed seconds
Timing for main: time 2019-11-26_20:10:00 on domain   1:    4.02727 elapsed seconds
Timing for main: time 2019-11-26_20:10:15 on domain   1:   32.12583 elapsed seconds
Timing for main: time 2019-11-26_20:10:30 on domain   1:    4.02822 elapsed seconds
Timing for main: time 2019-11-26_20:10:45 on domain   1:    4.02449 elapsed seconds
Timing for main: time 2019-11-26_20:11:00 on domain   1:    4.03190 elapsed seconds
Timing for main: time 2019-11-26_20:11:15 on domain   1:    4.03014 elapsed seconds
Timing for main: time 2019-11-26_20:11:30 on domain   1:    4.03092 elapsed seconds
Timing for main: time 2019-11-26_20:11:45 on domain   1:    4.02751 elapsed seconds
Timing for main: time 2019-11-26_20:12:00 on domain   1:    4.02536 elapsed seconds
Timing for main: time 2019-11-26_20:12:15 on domain   1:    4.03174 elapsed seconds
Timing for main: time 2019-11-26_20:12:30 on domain   1:    4.04395 elapsed seconds
Timing for main: time 2019-11-26_20:12:45 on domain   1:    4.04437 elapsed seconds
Timing for main: time 2019-11-26_20:13:00 on domain   1:    4.04216 elapsed seconds
Timing for main: time 2019-11-26_20:13:15 on domain   1:    4.03892 elapsed seconds
Timing for main: time 2019-11-26_20:13:30 on domain   1:    4.04025 elapsed seconds
Timing for main: time 2019-11-26_20:13:45 on domain   1:    4.04051 elapsed seconds
Timing for main: time 2019-11-26_20:14:00 on domain   1:    4.04579 elapsed seconds
Timing for main: time 2019-11-26_20:14:15 on domain   1:    4.04364 elapsed seconds
Timing for main: time 2019-11-26_20:14:30 on domain   1:    4.04512 elapsed seconds
Timing for main: time 2019-11-26_20:14:45 on domain   1:    4.04169 elapsed seconds
Timing for main: time 2019-11-26_20:15:00 on domain   1:    4.04767 elapsed seconds
Timing for main: time 2019-11-26_20:15:15 on domain   1:    4.03944 elapsed seconds
Timing for main: time 2019-11-26_20:15:30 on domain   1:    4.03976 elapsed seconds
Timing for main: time 2019-11-26_20:15:45 on domain   1:    4.04026 elapsed seconds
Timing for main: time 2019-11-26_20:16:00 on domain   1:    4.03852 elapsed seconds
Timing for main: time 2019-11-26_20:16:15 on domain   1:    4.04762 elapsed seconds
Timing for main: time 2019-11-26_20:16:30 on domain   1:    4.04299 elapsed seconds
Timing for main: time 2019-11-26_20:16:45 on domain   1:    4.05172 elapsed seconds
Timing for main: time 2019-11-26_20:17:00 on domain   1:    4.04232 elapsed seconds
Timing for main: time 2019-11-26_20:17:15 on domain   1:    4.05127 elapsed seconds
Timing for main: time 2019-11-26_20:17:30 on domain   1:    4.04263 elapsed seconds
Timing for main: time 2019-11-26_20:17:45 on domain   1:    4.04379 elapsed seconds
Timing for main: time 2019-11-26_20:18:00 on domain   1:    4.04329 elapsed seconds
Timing for main: time 2019-11-26_20:18:15 on domain   1:    4.04803 elapsed seconds
Timing for main: time 2019-11-26_20:18:30 on domain   1:    4.03821 elapsed seconds
Timing for main: time 2019-11-26_20:18:45 on domain   1:    4.04862 elapsed seconds
Timing for main: time 2019-11-26_20:19:00 on domain   1:    4.04364 elapsed seconds
Timing for main: time 2019-11-26_20:19:15 on domain   1:    4.04915 elapsed seconds
Timing for main: time 2019-11-26_20:19:30 on domain   1:    4.04491 elapsed seconds
Timing for main: time 2019-11-26_20:19:45 on domain   1:    4.04616 elapsed seconds
Timing for main: time 2019-11-26_20:20:00 on domain   1:    4.04268 elapsed seconds
Timing for main: time 2019-11-26_20:20:15 on domain   1:   32.07820 elapsed seconds
Timing for main: time 2019-11-26_20:20:30 on domain   1:    4.04719 elapsed seconds
Timing for main: time 2019-11-26_20:20:45 on domain   1:    4.04326 elapsed seconds
Timing for main: time 2019-11-26_20:21:00 on domain   1:    4.04673 elapsed seconds
Timing for main: time 2019-11-26_20:21:15 on domain   1:    4.04343 elapsed seconds
Timing for main: time 2019-11-26_20:21:30 on domain   1:    4.03253 elapsed seconds
Timing for main: time 2019-11-26_20:21:45 on domain   1:    4.04493 elapsed seconds
Timing for main: time 2019-11-26_20:22:00 on domain   1:    4.04651 elapsed seconds
Timing for main: time 2019-11-26_20:22:15 on domain   1:    4.04316 elapsed seconds
Timing for main: time 2019-11-26_20:22:30 on domain   1:    4.05098 elapsed seconds
Timing for main: time 2019-11-26_20:22:45 on domain   1:    4.04035 elapsed seconds
Timing for main: time 2019-11-26_20:23:00 on domain   1:    4.04697 elapsed seconds
Timing for main: time 2019-11-26_20:23:15 on domain   1:    4.05962 elapsed seconds
Timing for main: time 2019-11-26_20:23:30 on domain   1:    4.05062 elapsed seconds
Timing for main: time 2019-11-26_20:23:45 on domain   1:    4.04665 elapsed seconds
Timing for main: time 2019-11-26_20:24:00 on domain   1:    4.05256 elapsed seconds
Timing for main: time 2019-11-26_20:24:15 on domain   1:    4.04519 elapsed seconds
Timing for main: time 2019-11-26_20:24:30 on domain   1:    4.04990 elapsed seconds
Timing for main: time 2019-11-26_20:24:45 on domain   1:    4.04395 elapsed seconds
Timing for main: time 2019-11-26_20:25:00 on domain   1:    4.04825 elapsed seconds
Timing for main: time 2019-11-26_20:25:15 on domain   1:    4.04496 elapsed seconds
Timing for main: time 2019-11-26_20:25:30 on domain   1:    4.05116 elapsed seconds
Timing for main: time 2019-11-26_20:25:45 on domain   1:    4.04437 elapsed seconds
Timing for main: time 2019-11-26_20:26:00 on domain   1:    4.05252 elapsed seconds
Timing for main: time 2019-11-26_20:26:15 on domain   1:    4.04423 elapsed seconds
Timing for main: time 2019-11-26_20:26:30 on domain   1:    4.05147 elapsed seconds
Timing for main: time 2019-11-26_20:26:45 on domain   1:    4.04455 elapsed seconds
Timing for main: time 2019-11-26_20:27:00 on domain   1:    4.04856 elapsed seconds
Timing for main: time 2019-11-26_20:27:15 on domain   1:    4.04477 elapsed seconds
Timing for main: time 2019-11-26_20:27:30 on domain   1:    4.05005 elapsed seconds
Timing for main: time 2019-11-26_20:27:45 on domain   1:    4.04921 elapsed seconds
Timing for main: time 2019-11-26_20:28:00 on domain   1:    4.05064 elapsed seconds
Timing for main: time 2019-11-26_20:28:15 on domain   1:    4.04850 elapsed seconds
Timing for main: time 2019-11-26_20:28:30 on domain   1:    4.05330 elapsed seconds
Timing for main: time 2019-11-26_20:28:45 on domain   1:    4.04676 elapsed seconds
Timing for main: time 2019-11-26_20:29:00 on domain   1:    4.05497 elapsed seconds
Timing for main: time 2019-11-26_20:29:15 on domain   1:    4.04649 elapsed seconds
Timing for main: time 2019-11-26_20:29:30 on domain   1:    4.05410 elapsed seconds
Timing for main: time 2019-11-26_20:29:45 on domain   1:    4.04594 elapsed seconds
Timing for main: time 2019-11-26_20:30:00 on domain   1:    4.05215 elapsed seconds
Timing for main: time 2019-11-26_20:30:15 on domain   1:   32.08144 elapsed seconds
Timing for main: time 2019-11-26_20:30:30 on domain   1:    4.05008 elapsed seconds
Timing for main: time 2019-11-26_20:30:45 on domain   1:    4.04936 elapsed seconds
Timing for main: time 2019-11-26_20:31:00 on domain   1:    4.04796 elapsed seconds
Timing for main: time 2019-11-26_20:31:15 on domain   1:    4.05516 elapsed seconds
Timing for main: time 2019-11-26_20:31:30 on domain   1:    4.04477 elapsed seconds
Timing for main: time 2019-11-26_20:31:45 on domain   1:    4.05142 elapsed seconds
Timing for main: time 2019-11-26_20:32:00 on domain   1:    4.04636 elapsed seconds
Timing for main: time 2019-11-26_20:32:15 on domain   1:    4.04999 elapsed seconds
Timing for main: time 2019-11-26_20:32:30 on domain   1:    4.05050 elapsed seconds
Timing for main: time 2019-11-26_20:32:45 on domain   1:    4.04760 elapsed seconds
Timing for main: time 2019-11-26_20:33:00 on domain   1:    4.04966 elapsed seconds
Timing for main: time 2019-11-26_20:33:15 on domain   1:    4.05306 elapsed seconds
Timing for main: time 2019-11-26_20:33:30 on domain   1:    4.04649 elapsed seconds
Timing for main: time 2019-11-26_20:33:45 on domain   1:    4.04826 elapsed seconds
Timing for main: time 2019-11-26_20:34:00 on domain   1:    4.04858 elapsed seconds
Timing for main: time 2019-11-26_20:34:15 on domain   1:    4.05260 elapsed seconds
Timing for main: time 2019-11-26_20:34:30 on domain   1:    4.04917 elapsed seconds
Timing for main: time 2019-11-26_20:34:45 on domain   1:    4.05100 elapsed seconds
Timing for main: time 2019-11-26_20:35:00 on domain   1:    4.05480 elapsed seconds
Timing for main: time 2019-11-26_20:35:15 on domain   1:    4.05149 elapsed seconds
Timing for main: time 2019-11-26_20:35:30 on domain   1:    4.05210 elapsed seconds
Timing for main: time 2019-11-26_20:35:45 on domain   1:    4.05255 elapsed seconds
Timing for main: time 2019-11-26_20:36:00 on domain   1:    4.05586 elapsed seconds
Timing for main: time 2019-11-26_20:36:15 on domain   1:    4.05616 elapsed seconds
Timing for main: time 2019-11-26_20:36:30 on domain   1:    4.05521 elapsed seconds
Timing for main: time 2019-11-26_20:36:45 on domain   1:    4.05205 elapsed seconds
Timing for main: time 2019-11-26_20:37:00 on domain   1:    4.05672 elapsed seconds
Timing for main: time 2019-11-26_20:37:15 on domain   1:    4.05449 elapsed seconds
Timing for main: time 2019-11-26_20:37:30 on domain   1:    4.05663 elapsed seconds
Timing for main: time 2019-11-26_20:37:45 on domain   1:    4.05837 elapsed seconds
Timing for main: time 2019-11-26_20:38:00 on domain   1:    4.05686 elapsed seconds
Timing for main: time 2019-11-26_20:38:15 on domain   1:    4.04063 elapsed seconds
Timing for main: time 2019-11-26_20:38:30 on domain   1:    4.04529 elapsed seconds
Timing for main: time 2019-11-26_20:38:45 on domain   1:    4.05860 elapsed seconds
Timing for main: time 2019-11-26_20:39:00 on domain   1:    4.05594 elapsed seconds
Timing for main: time 2019-11-26_20:39:15 on domain   1:    4.05892 elapsed seconds
Timing for main: time 2019-11-26_20:39:30 on domain   1:    4.05714 elapsed seconds
Timing for main: time 2019-11-26_20:39:45 on domain   1:    4.05681 elapsed seconds
Timing for main: time 2019-11-26_20:40:00 on domain   1:    4.06126 elapsed seconds
Timing for main: time 2019-11-26_20:40:15 on domain   1:   32.13976 elapsed seconds
Timing for main: time 2019-11-26_20:40:30 on domain   1:    4.06685 elapsed seconds
Timing for main: time 2019-11-26_20:40:45 on domain   1:    4.06833 elapsed seconds
Timing for main: time 2019-11-26_20:41:00 on domain   1:    4.06855 elapsed seconds
Timing for main: time 2019-11-26_20:41:15 on domain   1:    4.06463 elapsed seconds
Timing for main: time 2019-11-26_20:41:30 on domain   1:    4.06995 elapsed seconds
Timing for main: time 2019-11-26_20:41:45 on domain   1:    4.06117 elapsed seconds
Timing for main: time 2019-11-26_20:42:00 on domain   1:    4.06735 elapsed seconds
Timing for main: time 2019-11-26_20:42:15 on domain   1:    4.06578 elapsed seconds
Timing for main: time 2019-11-26_20:42:30 on domain   1:    4.06776 elapsed seconds
Timing for main: time 2019-11-26_20:42:45 on domain   1:    4.06679 elapsed seconds
Timing for main: time 2019-11-26_20:43:00 on domain   1:    4.06876 elapsed seconds
Timing for main: time 2019-11-26_20:43:15 on domain   1:    4.06618 elapsed seconds
Timing for main: time 2019-11-26_20:43:30 on domain   1:    4.07363 elapsed seconds
Timing for main: time 2019-11-26_20:43:45 on domain   1:    4.06676 elapsed seconds
Timing for main: time 2019-11-26_20:44:00 on domain   1:    4.06752 elapsed seconds
Timing for main: time 2019-11-26_20:44:15 on domain   1:    4.07095 elapsed seconds
Timing for main: time 2019-11-26_20:44:30 on domain   1:    4.07087 elapsed seconds
Timing for main: time 2019-11-26_20:44:45 on domain   1:    4.06761 elapsed seconds
Timing for main: time 2019-11-26_20:45:00 on domain   1:    4.07160 elapsed seconds
Timing for main: time 2019-11-26_20:45:15 on domain   1:    4.07153 elapsed seconds
Timing for main: time 2019-11-26_20:45:30 on domain   1:    4.06830 elapsed seconds
Timing for main: time 2019-11-26_20:45:45 on domain   1:    4.07111 elapsed seconds
Timing for main: time 2019-11-26_20:46:00 on domain   1:    4.06069 elapsed seconds
Timing for main: time 2019-11-26_20:46:15 on domain   1:    4.05221 elapsed seconds
Timing for main: time 2019-11-26_20:46:30 on domain   1:    4.06099 elapsed seconds
Timing for main: time 2019-11-26_20:46:45 on domain   1:    4.05483 elapsed seconds
Timing for main: time 2019-11-26_20:47:00 on domain   1:    4.05155 elapsed seconds
Timing for main: time 2019-11-26_20:47:15 on domain   1:    4.05953 elapsed seconds
Timing for main: time 2019-11-26_20:47:30 on domain   1:    4.06082 elapsed seconds
Timing for main: time 2019-11-26_20:47:45 on domain   1:    4.05300 elapsed seconds
Timing for main: time 2019-11-26_20:48:00 on domain   1:    4.05858 elapsed seconds
Timing for main: time 2019-11-26_20:48:15 on domain   1:    4.05933 elapsed seconds
Timing for main: time 2019-11-26_20:48:30 on domain   1:    4.05741 elapsed seconds
Timing for main: time 2019-11-26_20:48:45 on domain   1:    4.05848 elapsed seconds
Timing for main: time 2019-11-26_20:49:00 on domain   1:    4.05621 elapsed seconds
Timing for main: time 2019-11-26_20:49:15 on domain   1:    4.05858 elapsed seconds
Timing for main: time 2019-11-26_20:49:30 on domain   1:    4.06225 elapsed seconds
Timing for main: time 2019-11-26_20:49:45 on domain   1:    4.06525 elapsed seconds
Timing for main: time 2019-11-26_20:50:00 on domain   1:    4.05645 elapsed seconds
Timing for main: time 2019-11-26_20:50:15 on domain   1:   32.15916 elapsed seconds
Timing for main: time 2019-11-26_20:50:30 on domain   1:    4.06594 elapsed seconds
Timing for main: time 2019-11-26_20:50:45 on domain   1:    4.06236 elapsed seconds
Timing for main: time 2019-11-26_20:51:00 on domain   1:    4.06607 elapsed seconds
Timing for main: time 2019-11-26_20:51:15 on domain   1:    4.06475 elapsed seconds
Timing for main: time 2019-11-26_20:51:30 on domain   1:    4.06758 elapsed seconds
Timing for main: time 2019-11-26_20:51:45 on domain   1:    4.07081 elapsed seconds
Timing for main: time 2019-11-26_20:52:00 on domain   1:    4.07945 elapsed seconds
Timing for main: time 2019-11-26_20:52:15 on domain   1:    4.07317 elapsed seconds
Timing for main: time 2019-11-26_20:52:30 on domain   1:    4.07279 elapsed seconds
Timing for main: time 2019-11-26_20:52:45 on domain   1:    4.07295 elapsed seconds
Timing for main: time 2019-11-26_20:53:00 on domain   1:    4.07416 elapsed seconds
Timing for main: time 2019-11-26_20:53:15 on domain   1:    4.07081 elapsed seconds
Timing for main: time 2019-11-26_20:53:30 on domain   1:    4.07240 elapsed seconds
Timing for main: time 2019-11-26_20:53:45 on domain   1:    4.07224 elapsed seconds
Timing for main: time 2019-11-26_20:54:00 on domain   1:    4.07654 elapsed seconds
Timing for main: time 2019-11-26_20:54:15 on domain   1:    4.07751 elapsed seconds
Timing for main: time 2019-11-26_20:54:30 on domain   1:    4.07366 elapsed seconds
Timing for main: time 2019-11-26_20:54:45 on domain   1:    4.07709 elapsed seconds
Timing for main: time 2019-11-26_20:55:00 on domain   1:    4.07660 elapsed seconds
Timing for main: time 2019-11-26_20:55:15 on domain   1:    4.07501 elapsed seconds
Timing for main: time 2019-11-26_20:55:30 on domain   1:    4.07399 elapsed seconds
Timing for main: time 2019-11-26_20:55:45 on domain   1:    4.07666 elapsed seconds
Timing for main: time 2019-11-26_20:56:00 on domain   1:    4.07741 elapsed seconds
Timing for main: time 2019-11-26_20:56:15 on domain   1:    4.07876 elapsed seconds
Timing for main: time 2019-11-26_20:56:30 on domain   1:    4.07916 elapsed seconds
Timing for main: time 2019-11-26_20:56:45 on domain   1:    4.07341 elapsed seconds
Timing for main: time 2019-11-26_20:57:00 on domain   1:    4.07274 elapsed seconds
Timing for main: time 2019-11-26_20:57:15 on domain   1:    4.07614 elapsed seconds
Timing for main: time 2019-11-26_20:57:30 on domain   1:    4.07954 elapsed seconds
Timing for main: time 2019-11-26_20:57:45 on domain   1:    4.07719 elapsed seconds
Timing for main: time 2019-11-26_20:58:00 on domain   1:    4.07841 elapsed seconds
Timing for main: time 2019-11-26_20:58:15 on domain   1:    4.07679 elapsed seconds
Timing for main: time 2019-11-26_20:58:30 on domain   1:    4.07614 elapsed seconds
Timing for main: time 2019-11-26_20:58:45 on domain   1:    4.07631 elapsed seconds
Timing for main: time 2019-11-26_20:59:00 on domain   1:    4.07607 elapsed seconds
Timing for main: time 2019-11-26_20:59:15 on domain   1:    4.08115 elapsed seconds
Timing for main: time 2019-11-26_20:59:30 on domain   1:    4.07821 elapsed seconds
Timing for main: time 2019-11-26_20:59:45 on domain   1:    4.07547 elapsed seconds
Timing for main: time 2019-11-26_21:00:00 on domain   1:    4.07591 elapsed seconds
 mediation_integrate.G        1249 DATASET=HISTORY
 mediation_integrate.G        1250  grid%id            1  grid%oid            2
Timing for Writing wrfout_d01_2019-11-26_21:00:00 for domain        1:    4.47206 elapsed seconds
 Input data is acceptable to use: wrfbdy_d01
Timing for processing lateral boundary for domain        1:    0.37841 elapsed seconds
Timing for main: time 2019-11-26_21:00:15 on domain   1:   36.99881 elapsed seconds
Timing for main: time 2019-11-26_21:00:30 on domain   1:    4.07065 elapsed seconds
Timing for main: time 2019-11-26_21:00:45 on domain   1:    4.07152 elapsed seconds
Timing for main: time 2019-11-26_21:01:00 on domain   1:    4.07065 elapsed seconds
Timing for main: time 2019-11-26_21:01:15 on domain   1:    4.07873 elapsed seconds
Timing for main: time 2019-11-26_21:01:30 on domain   1:    4.07514 elapsed seconds
Timing for main: time 2019-11-26_21:01:45 on domain   1:    4.07778 elapsed seconds
Timing for main: time 2019-11-26_21:02:00 on domain   1:    4.07857 elapsed seconds
Timing for main: time 2019-11-26_21:02:15 on domain   1:    4.08142 elapsed seconds
Timing for main: time 2019-11-26_21:02:30 on domain   1:    4.07550 elapsed seconds
Timing for main: time 2019-11-26_21:02:45 on domain   1:    4.07514 elapsed seconds
Timing for main: time 2019-11-26_21:03:00 on domain   1:    4.07652 elapsed seconds
Timing for main: time 2019-11-26_21:03:15 on domain   1:    4.08059 elapsed seconds
Timing for main: time 2019-11-26_21:03:30 on domain   1:    4.08041 elapsed seconds
Timing for main: time 2019-11-26_21:03:45 on domain   1:    4.08547 elapsed seconds
Timing for main: time 2019-11-26_21:04:00 on domain   1:    4.08103 elapsed seconds
Timing for main: time 2019-11-26_21:04:15 on domain   1:    4.08126 elapsed seconds
Timing for main: time 2019-11-26_21:04:30 on domain   1:    4.08188 elapsed seconds
Timing for main: time 2019-11-26_21:04:45 on domain   1:    4.07791 elapsed seconds
Timing for main: time 2019-11-26_21:05:00 on domain   1:    4.08082 elapsed seconds
Timing for main: time 2019-11-26_21:05:15 on domain   1:    4.08023 elapsed seconds
Timing for main: time 2019-11-26_21:05:30 on domain   1:    4.07629 elapsed seconds
Timing for main: time 2019-11-26_21:05:45 on domain   1:    4.08078 elapsed seconds
Timing for main: time 2019-11-26_21:06:00 on domain   1:    4.07987 elapsed seconds
Timing for main: time 2019-11-26_21:06:15 on domain   1:    4.07556 elapsed seconds
Timing for main: time 2019-11-26_21:06:30 on domain   1:    4.08084 elapsed seconds
Timing for main: time 2019-11-26_21:06:45 on domain   1:    4.07997 elapsed seconds
Timing for main: time 2019-11-26_21:07:00 on domain   1:    4.07724 elapsed seconds
Timing for main: time 2019-11-26_21:07:15 on domain   1:    4.07858 elapsed seconds
Timing for main: time 2019-11-26_21:07:30 on domain   1:    4.07694 elapsed seconds
Timing for main: time 2019-11-26_21:07:45 on domain   1:    4.08334 elapsed seconds
Timing for main: time 2019-11-26_21:08:00 on domain   1:    4.07372 elapsed seconds
Timing for main: time 2019-11-26_21:08:15 on domain   1:    4.07360 elapsed seconds
Timing for main: time 2019-11-26_21:08:30 on domain   1:    4.07424 elapsed seconds
Timing for main: time 2019-11-26_21:08:45 on domain   1:    4.07857 elapsed seconds
Timing for main: time 2019-11-26_21:09:00 on domain   1:    4.07618 elapsed seconds
Timing for main: time 2019-11-26_21:09:15 on domain   1:    4.07442 elapsed seconds
Timing for main: time 2019-11-26_21:09:30 on domain   1:    4.07416 elapsed seconds
Timing for main: time 2019-11-26_21:09:45 on domain   1:    4.07672 elapsed seconds
Timing for main: time 2019-11-26_21:10:00 on domain   1:    4.07144 elapsed seconds
Timing for main: time 2019-11-26_21:10:15 on domain   1:   32.20801 elapsed seconds
Timing for main: time 2019-11-26_21:10:30 on domain   1:    4.08732 elapsed seconds
Timing for main: time 2019-11-26_21:10:45 on domain   1:    4.08670 elapsed seconds
Timing for main: time 2019-11-26_21:11:00 on domain   1:    4.08736 elapsed seconds
Timing for main: time 2019-11-26_21:11:15 on domain   1:    4.09139 elapsed seconds
Timing for main: time 2019-11-26_21:11:30 on domain   1:    4.08460 elapsed seconds
Timing for main: time 2019-11-26_21:11:45 on domain   1:    4.09306 elapsed seconds
Timing for main: time 2019-11-26_21:12:00 on domain   1:    4.08617 elapsed seconds
Timing for main: time 2019-11-26_21:12:15 on domain   1:    4.08720 elapsed seconds
Timing for main: time 2019-11-26_21:12:30 on domain   1:    4.08605 elapsed seconds
Timing for main: time 2019-11-26_21:12:45 on domain   1:    4.08793 elapsed seconds
Timing for main: time 2019-11-26_21:13:00 on domain   1:    4.09024 elapsed seconds
Timing for main: time 2019-11-26_21:13:15 on domain   1:    4.08934 elapsed seconds
Timing for main: time 2019-11-26_21:13:30 on domain   1:    4.09074 elapsed seconds
Timing for main: time 2019-11-26_21:13:45 on domain   1:    4.09204 elapsed seconds
Timing for main: time 2019-11-26_21:14:00 on domain   1:    4.09102 elapsed seconds
Timing for main: time 2019-11-26_21:14:15 on domain   1:    4.08819 elapsed seconds
Timing for main: time 2019-11-26_21:14:30 on domain   1:    4.08975 elapsed seconds
Timing for main: time 2019-11-26_21:14:45 on domain   1:    4.09213 elapsed seconds
Timing for main: time 2019-11-26_21:15:00 on domain   1:    4.08926 elapsed seconds
Timing for main: time 2019-11-26_21:15:15 on domain   1:    4.08803 elapsed seconds
Timing for main: time 2019-11-26_21:15:30 on domain   1:    4.09214 elapsed seconds
Timing for main: time 2019-11-26_21:15:45 on domain   1:    4.09389 elapsed seconds
Timing for main: time 2019-11-26_21:16:00 on domain   1:    4.08915 elapsed seconds
Timing for main: time 2019-11-26_21:16:15 on domain   1:    4.09151 elapsed seconds
Timing for main: time 2019-11-26_21:16:30 on domain   1:    4.09340 elapsed seconds
Timing for main: time 2019-11-26_21:16:45 on domain   1:    4.09272 elapsed seconds
Timing for main: time 2019-11-26_21:17:00 on domain   1:    4.09071 elapsed seconds
Timing for main: time 2019-11-26_21:17:15 on domain   1:    4.09455 elapsed seconds
Timing for main: time 2019-11-26_21:17:30 on domain   1:    4.09272 elapsed seconds
Timing for main: time 2019-11-26_21:17:45 on domain   1:    4.09397 elapsed seconds
Timing for main: time 2019-11-26_21:18:00 on domain   1:    4.09301 elapsed seconds
Timing for main: time 2019-11-26_21:18:15 on domain   1:    4.07966 elapsed seconds
Timing for main: time 2019-11-26_21:18:30 on domain   1:    4.08942 elapsed seconds
Timing for main: time 2019-11-26_21:18:45 on domain   1:    4.09033 elapsed seconds
Timing for main: time 2019-11-26_21:19:00 on domain   1:    4.09542 elapsed seconds
Timing for main: time 2019-11-26_21:19:15 on domain   1:    4.09486 elapsed seconds
Timing for main: time 2019-11-26_21:19:30 on domain   1:    4.09327 elapsed seconds
Timing for main: time 2019-11-26_21:19:45 on domain   1:    4.09039 elapsed seconds
Timing for main: time 2019-11-26_21:20:00 on domain   1:    4.09127 elapsed seconds
Timing for main: time 2019-11-26_21:20:15 on domain   1:   32.21450 elapsed seconds
Timing for main: time 2019-11-26_21:20:30 on domain   1:    4.08320 elapsed seconds
Timing for main: time 2019-11-26_21:20:45 on domain   1:    4.08379 elapsed seconds
Timing for main: time 2019-11-26_21:21:00 on domain   1:    4.08417 elapsed seconds
Timing for main: time 2019-11-26_21:21:15 on domain   1:    4.08354 elapsed seconds
Timing for main: time 2019-11-26_21:21:30 on domain   1:    4.08194 elapsed seconds
Timing for main: time 2019-11-26_21:21:45 on domain   1:    4.08091 elapsed seconds
Timing for main: time 2019-11-26_21:22:00 on domain   1:    4.08865 elapsed seconds
Timing for main: time 2019-11-26_21:22:15 on domain   1:    4.08259 elapsed seconds
Timing for main: time 2019-11-26_21:22:30 on domain   1:    4.08177 elapsed seconds
Timing for main: time 2019-11-26_21:22:45 on domain   1:    4.08338 elapsed seconds
Timing for main: time 2019-11-26_21:23:00 on domain   1:    4.08544 elapsed seconds
Timing for main: time 2019-11-26_21:23:15 on domain   1:    4.08405 elapsed seconds
Timing for main: time 2019-11-26_21:23:30 on domain   1:    4.08538 elapsed seconds
Timing for main: time 2019-11-26_21:23:45 on domain   1:    4.08592 elapsed seconds
Timing for main: time 2019-11-26_21:24:00 on domain   1:    4.08264 elapsed seconds
Timing for main: time 2019-11-26_21:24:15 on domain   1:    4.08614 elapsed seconds
Timing for main: time 2019-11-26_21:24:30 on domain   1:    4.08207 elapsed seconds
Timing for main: time 2019-11-26_21:24:45 on domain   1:    4.08338 elapsed seconds
Timing for main: time 2019-11-26_21:25:00 on domain   1:    4.08688 elapsed seconds
Timing for main: time 2019-11-26_21:25:15 on domain   1:    4.08133 elapsed seconds
Timing for main: time 2019-11-26_21:25:30 on domain   1:    4.08007 elapsed seconds
Timing for main: time 2019-11-26_21:25:45 on domain   1:    4.08720 elapsed seconds
Timing for main: time 2019-11-26_21:26:00 on domain   1:    4.08434 elapsed seconds
Timing for main: time 2019-11-26_21:26:15 on domain   1:    4.08736 elapsed seconds
Timing for main: time 2019-11-26_21:26:30 on domain   1:    4.08812 elapsed seconds
Timing for main: time 2019-11-26_21:26:45 on domain   1:    4.08380 elapsed seconds
Timing for main: time 2019-11-26_21:27:00 on domain   1:    4.08334 elapsed seconds
Timing for main: time 2019-11-26_21:27:15 on domain   1:    4.33185 elapsed seconds
Timing for main: time 2019-11-26_21:27:30 on domain   1:    4.09981 elapsed seconds
Timing for main: time 2019-11-26_21:27:45 on domain   1:    4.09292 elapsed seconds
Timing for main: time 2019-11-26_21:28:00 on domain   1:    4.09433 elapsed seconds
Timing for main: time 2019-11-26_21:28:15 on domain   1:    4.09313 elapsed seconds
Timing for main: time 2019-11-26_21:28:30 on domain   1:    4.09067 elapsed seconds
Timing for main: time 2019-11-26_21:28:45 on domain   1:    4.09371 elapsed seconds
Timing for main: time 2019-11-26_21:29:00 on domain   1:    5.99643 elapsed seconds
Timing for main: time 2019-11-26_21:29:15 on domain   1:    4.08722 elapsed seconds
Timing for main: time 2019-11-26_21:29:30 on domain   1:    4.09310 elapsed seconds
Timing for main: time 2019-11-26_21:29:45 on domain   1:    4.09156 elapsed seconds
Timing for main: time 2019-11-26_21:30:00 on domain   1:    4.09687 elapsed seconds
Timing for main: time 2019-11-26_21:30:15 on domain   1:   32.22459 elapsed seconds
Timing for main: time 2019-11-26_21:30:30 on domain   1:    4.10015 elapsed seconds
Timing for main: time 2019-11-26_21:30:45 on domain   1:    4.09788 elapsed seconds
Timing for main: time 2019-11-26_21:31:00 on domain   1:    4.09813 elapsed seconds
Timing for main: time 2019-11-26_21:31:15 on domain   1:    4.10021 elapsed seconds
Timing for main: time 2019-11-26_21:31:30 on domain   1:    4.10316 elapsed seconds
Timing for main: time 2019-11-26_21:31:45 on domain   1:    4.09877 elapsed seconds
Timing for main: time 2019-11-26_21:32:00 on domain   1:    4.10358 elapsed seconds
Timing for main: time 2019-11-26_21:32:15 on domain   1:    4.10268 elapsed seconds
Timing for main: time 2019-11-26_21:32:30 on domain   1:    4.09851 elapsed seconds
Timing for main: time 2019-11-26_21:32:45 on domain   1:    4.10459 elapsed seconds
Timing for main: time 2019-11-26_21:33:00 on domain   1:    4.10041 elapsed seconds
Timing for main: time 2019-11-26_21:33:15 on domain   1:    4.09740 elapsed seconds
Timing for main: time 2019-11-26_21:33:30 on domain   1:    4.10282 elapsed seconds
Timing for main: time 2019-11-26_21:33:45 on domain   1:    4.10165 elapsed seconds
Timing for main: time 2019-11-26_21:34:00 on domain   1:    4.09583 elapsed seconds
Timing for main: time 2019-11-26_21:34:15 on domain   1:    4.10140 elapsed seconds
Timing for main: time 2019-11-26_21:34:30 on domain   1:    4.10442 elapsed seconds
Timing for main: time 2019-11-26_21:34:45 on domain   1:    4.09702 elapsed seconds
Timing for main: time 2019-11-26_21:35:00 on domain   1:    4.10180 elapsed seconds
Timing for main: time 2019-11-26_21:35:15 on domain   1:    4.10590 elapsed seconds
Timing for main: time 2019-11-26_21:35:30 on domain   1:    4.09962 elapsed seconds
Timing for main: time 2019-11-26_21:35:45 on domain   1:    4.10605 elapsed seconds
Timing for main: time 2019-11-26_21:36:00 on domain   1:    4.10594 elapsed seconds
Timing for main: time 2019-11-26_21:36:15 on domain   1:    4.10036 elapsed seconds
Timing for main: time 2019-11-26_21:36:30 on domain   1:    4.10854 elapsed seconds
Timing for main: time 2019-11-26_21:36:45 on domain   1:    4.10394 elapsed seconds
Timing for main: time 2019-11-26_21:37:00 on domain   1:    4.10246 elapsed seconds
Timing for main: time 2019-11-26_21:37:15 on domain   1:    4.10504 elapsed seconds
Timing for main: time 2019-11-26_21:37:30 on domain   1:    4.10405 elapsed seconds
Timing for main: time 2019-11-26_21:37:45 on domain   1:    4.10004 elapsed seconds
Timing for main: time 2019-11-26_21:38:00 on domain   1:    4.10467 elapsed seconds
Timing for main: time 2019-11-26_21:38:15 on domain   1:    4.10667 elapsed seconds
Timing for main: time 2019-11-26_21:38:30 on domain   1:    4.10037 elapsed seconds
Timing for main: time 2019-11-26_21:38:45 on domain   1:    4.10589 elapsed seconds
Timing for main: time 2019-11-26_21:39:00 on domain   1:    4.10815 elapsed seconds
Timing for main: time 2019-11-26_21:39:15 on domain   1:    4.09924 elapsed seconds
Timing for main: time 2019-11-26_21:39:30 on domain   1:    4.10734 elapsed seconds
Timing for main: time 2019-11-26_21:39:45 on domain   1:    4.10580 elapsed seconds
Timing for main: time 2019-11-26_21:40:00 on domain   1:    4.10024 elapsed seconds
Timing for main: time 2019-11-26_21:40:15 on domain   1:   32.04618 elapsed seconds
Timing for main: time 2019-11-26_21:40:30 on domain   1:    4.10382 elapsed seconds
Timing for main: time 2019-11-26_21:40:45 on domain   1:    4.09918 elapsed seconds
Timing for main: time 2019-11-26_21:41:00 on domain   1:    4.10272 elapsed seconds
Timing for main: time 2019-11-26_21:41:15 on domain   1:    4.09751 elapsed seconds
Timing for main: time 2019-11-26_21:41:30 on domain   1:    4.10180 elapsed seconds
Timing for main: time 2019-11-26_21:41:45 on domain   1:    4.09798 elapsed seconds
Timing for main: time 2019-11-26_21:42:00 on domain   1:    4.10136 elapsed seconds
Timing for main: time 2019-11-26_21:42:15 on domain   1:    4.10204 elapsed seconds
Timing for main: time 2019-11-26_21:42:30 on domain   1:    4.10230 elapsed seconds
Timing for main: time 2019-11-26_21:42:45 on domain   1:    4.10229 elapsed seconds
Timing for main: time 2019-11-26_21:43:00 on domain   1:    4.09883 elapsed seconds
Timing for main: time 2019-11-26_21:43:15 on domain   1:    4.10405 elapsed seconds
Timing for main: time 2019-11-26_21:43:30 on domain   1:    4.10266 elapsed seconds
[...]
Timing for main: time 2019-11-26_23:01:30 on domain   1:    4.13678 elapsed seconds
Timing for main: time 2019-11-26_23:01:45 on domain   1:    4.13777 elapsed seconds
Timing for main: time 2019-11-26_23:02:00 on domain   1:    4.13900 elapsed seconds
Timing for main: time 2019-11-26_23:02:15 on domain   1:    4.13052 elapsed seconds
Timing for main: time 2019-11-26_23:02:30 on domain   1:    4.12711 elapsed seconds
Timing for main: time 2019-11-26_23:02:45 on domain   1:    4.12848 elapsed seconds
Timing for main: time 2019-11-26_23:03:00 on domain   1:    4.12780 elapsed seconds
Timing for main: time 2019-11-26_23:03:15 on domain   1:    4.12770 elapsed seconds
Timing for main: time 2019-11-26_23:03:30 on domain   1:    4.13177 elapsed seconds
Timing for main: time 2019-11-26_23:03:45 on domain   1:    4.12279 elapsed seconds
Timing for main: time 2019-11-26_23:04:00 on domain   1:    4.12780 elapsed seconds
Timing for main: time 2019-11-26_23:04:15 on domain   1:    4.12602 elapsed seconds
Timing for main: time 2019-11-26_23:04:30 on domain   1:    4.13517 elapsed seconds
Timing for main: time 2019-11-26_23:04:45 on domain   1:    4.12501 elapsed seconds
Timing for main: time 2019-11-26_23:05:00 on domain   1:    4.12722 elapsed seconds
Timing for main: time 2019-11-26_23:05:15 on domain   1:    4.13195 elapsed seconds
Timing for main: time 2019-11-26_23:05:30 on domain   1:    4.12830 elapsed seconds
Timing for main: time 2019-11-26_23:05:45 on domain   1:    4.12844 elapsed seconds
Timing for main: time 2019-11-26_23:06:00 on domain   1:    4.12536 elapsed seconds
Timing for main: time 2019-11-26_23:06:15 on domain   1:    4.12773 elapsed seconds
Timing for main: time 2019-11-26_23:06:30 on domain   1:    4.12671 elapsed seconds
Timing for main: time 2019-11-26_23:06:45 on domain   1:    4.13224 elapsed seconds
Timing for main: time 2019-11-26_23:07:00 on domain   1:    4.12709 elapsed seconds
Timing for main: time 2019-11-26_23:07:15 on domain   1:    4.11830 elapsed seconds
Timing for main: time 2019-11-26_23:07:30 on domain   1:    4.12246 elapsed seconds
Timing for main: time 2019-11-26_23:07:45 on domain   1:    4.11752 elapsed seconds
Timing for main: time 2019-11-26_23:08:00 on domain   1:    4.12161 elapsed seconds
Timing for main: time 2019-11-26_23:08:15 on domain   1:    4.12300 elapsed seconds
Timing for main: time 2019-11-26_23:08:30 on domain   1:    4.12189 elapsed seconds
Timing for main: time 2019-11-26_23:08:45 on domain   1:    4.12115 elapsed seconds
Timing for main: time 2019-11-26_23:09:00 on domain   1:    4.11528 elapsed seconds
Timing for main: time 2019-11-26_23:09:15 on domain   1:    4.12145 elapsed seconds
Timing for main: time 2019-11-26_23:09:30 on domain   1:    4.12024 elapsed seconds
Timing for main: time 2019-11-26_23:09:45 on domain   1:    4.12212 elapsed seconds
Timing for main: time 2019-11-26_23:10:00 on domain   1:    4.12189 elapsed seconds
Timing for main: time 2019-11-26_23:10:15 on domain   1:   28.58911 elapsed seconds
Timing for main: time 2019-11-26_23:10:30 on domain   1:    4.12226 elapsed seconds
Timing for main: time 2019-11-26_23:10:45 on domain   1:    4.12047 elapsed seconds
Timing for main: time 2019-11-26_23:11:00 on domain   1:    4.12315 elapsed seconds
Timing for main: time 2019-11-26_23:11:15 on domain   1:    4.12492 elapsed seconds
Timing for main: time 2019-11-26_23:11:30 on domain   1:    4.12253 elapsed seconds
Timing for main: time 2019-11-26_23:11:45 on domain   1:    4.12371 elapsed seconds
Timing for main: time 2019-11-26_23:12:00 on domain   1:    4.12849 elapsed seconds
Timing for main: time 2019-11-26_23:12:15 on domain   1:    4.12462 elapsed seconds
Timing for main: time 2019-11-26_23:12:30 on domain   1:    4.12652 elapsed seconds
Timing for main: time 2019-11-26_23:12:45 on domain   1:    4.12375 elapsed seconds
Timing for main: time 2019-11-26_23:13:00 on domain   1:    4.12293 elapsed seconds
Timing for main: time 2019-11-26_23:13:15 on domain   1:    4.12613 elapsed seconds
Timing for main: time 2019-11-26_23:13:30 on domain   1:    4.12472 elapsed seconds
Timing for main: time 2019-11-26_23:13:45 on domain   1:    4.12441 elapsed seconds
Timing for main: time 2019-11-26_23:14:00 on domain   1:    4.11925 elapsed seconds
Timing for main: time 2019-11-26_23:14:15 on domain   1:    4.12526 elapsed seconds
Timing for main: time 2019-11-26_23:14:30 on domain   1:    4.12155 elapsed seconds
Timing for main: time 2019-11-26_23:14:45 on domain   1:    4.12682 elapsed seconds
Timing for main: time 2019-11-26_23:15:00 on domain   1:    4.12840 elapsed seconds
Timing for main: time 2019-11-26_23:15:15 on domain   1:    4.12336 elapsed seconds
Timing for main: time 2019-11-26_23:15:30 on domain   1:    4.12303 elapsed seconds
Timing for main: time 2019-11-26_23:15:45 on domain   1:    4.12385 elapsed seconds
Timing for main: time 2019-11-26_23:16:00 on domain   1:    4.12416 elapsed seconds
Timing for main: time 2019-11-26_23:16:15 on domain   1:    4.12383 elapsed seconds
Timing for main: time 2019-11-26_23:16:30 on domain   1:    4.12481 elapsed seconds
Timing for main: time 2019-11-26_23:16:45 on domain   1:    4.12269 elapsed seconds
Timing for main: time 2019-11-26_23:17:00 on domain   1:    4.12592 elapsed seconds
Timing for main: time 2019-11-26_23:17:15 on domain   1:    4.12249 elapsed seconds
Timing for main: time 2019-11-26_23:17:30 on domain   1:    4.12016 elapsed seconds
Timing for main: time 2019-11-26_23:17:45 on domain   1:    4.12487 elapsed seconds
Timing for main: time 2019-11-26_23:18:00 on domain   1:    4.12446 elapsed seconds
Timing for main: time 2019-11-26_23:18:15 on domain   1:    4.12286 elapsed seconds
Timing for main: time 2019-11-26_23:18:30 on domain   1:    4.11849 elapsed seconds
Timing for main: time 2019-11-26_23:18:45 on domain   1:    4.12225 elapsed seconds
Timing for main: time 2019-11-26_23:19:00 on domain   1:    4.12394 elapsed seconds
Timing for main: time 2019-11-26_23:19:15 on domain   1:    4.12225 elapsed seconds
Timing for main: time 2019-11-26_23:19:30 on domain   1:    4.12597 elapsed seconds
Timing for main: time 2019-11-26_23:19:45 on domain   1:    4.12222 elapsed seconds
Timing for main: time 2019-11-26_23:20:00 on domain   1:    4.12162 elapsed seconds
Timing for main: time 2019-11-26_23:20:15 on domain   1:   28.43091 elapsed seconds
Timing for main: time 2019-11-26_23:20:30 on domain   1:    4.12130 elapsed seconds
Timing for main: time 2019-11-26_23:20:45 on domain   1:    4.12166 elapsed seconds
Timing for main: time 2019-11-26_23:21:00 on domain   1:    4.11801 elapsed seconds
Timing for main: time 2019-11-26_23:21:15 on domain   1:    4.12043 elapsed seconds
Timing for main: time 2019-11-26_23:21:30 on domain   1:    4.14428 elapsed seconds
Timing for main: time 2019-11-26_23:21:45 on domain   1:    4.12408 elapsed seconds
Timing for main: time 2019-11-26_23:22:00 on domain   1:    4.12080 elapsed seconds
Timing for main: time 2019-11-26_23:22:15 on domain   1:    4.12029 elapsed seconds
Timing for main: time 2019-11-26_23:22:30 on domain   1:    4.12175 elapsed seconds
Timing for main: time 2019-11-26_23:22:45 on domain   1:    4.11641 elapsed seconds
Timing for main: time 2019-11-26_23:23:00 on domain   1:    4.11920 elapsed seconds
Timing for main: time 2019-11-26_23:23:15 on domain   1:    4.12304 elapsed seconds
Timing for main: time 2019-11-26_23:23:30 on domain   1:    4.12135 elapsed seconds
Timing for main: time 2019-11-26_23:23:45 on domain   1:    4.12054 elapsed seconds
Timing for main: time 2019-11-26_23:24:00 on domain   1:    4.12431 elapsed seconds
Timing for main: time 2019-11-26_23:24:15 on domain   1:    4.12158 elapsed seconds
Timing for main: time 2019-11-26_23:24:30 on domain   1:    4.12082 elapsed seconds
Timing for main: time 2019-11-26_23:24:45 on domain   1:    4.11909 elapsed seconds
Timing for main: time 2019-11-26_23:25:00 on domain   1:    4.11879 elapsed seconds
Timing for main: time 2019-11-26_23:25:15 on domain   1:    4.12196 elapsed seconds
Timing for main: time 2019-11-26_23:25:30 on domain   1:    4.12326 elapsed seconds
Timing for main: time 2019-11-26_23:25:45 on domain   1:    4.12472 elapsed seconds
Timing for main: time 2019-11-26_23:26:00 on domain   1:    4.12075 elapsed seconds
Timing for main: time 2019-11-26_23:26:15 on domain   1:    4.11989 elapsed seconds
Timing for main: time 2019-11-26_23:26:30 on domain   1:    4.12526 elapsed seconds
Timing for main: time 2019-11-26_23:26:45 on domain   1:    4.12125 elapsed seconds
Timing for main: time 2019-11-26_23:27:00 on domain   1:    4.12169 elapsed seconds
Timing for main: time 2019-11-26_23:27:15 on domain   1:    4.12353 elapsed seconds
Timing for main: time 2019-11-26_23:27:30 on domain   1:    4.12540 elapsed seconds
Timing for main: time 2019-11-26_23:27:45 on domain   1:    4.12413 elapsed seconds
Timing for main: time 2019-11-26_23:28:00 on domain   1:    4.12397 elapsed seconds
Timing for main: time 2019-11-26_23:28:15 on domain   1:    4.11571 elapsed seconds
Timing for main: time 2019-11-26_23:28:30 on domain   1:    4.12228 elapsed seconds
Timing for main: time 2019-11-26_23:28:45 on domain   1:    4.12395 elapsed seconds
Timing for main: time 2019-11-26_23:29:00 on domain   1:    4.11795 elapsed seconds
Timing for main: time 2019-11-26_23:29:15 on domain   1:    4.12172 elapsed seconds
Timing for main: time 2019-11-26_23:29:30 on domain   1:    4.11962 elapsed seconds
Timing for main: time 2019-11-26_23:29:45 on domain   1:    4.12126 elapsed seconds
Timing for main: time 2019-11-26_23:30:00 on domain   1:    4.12155 elapsed seconds
Timing for main: time 2019-11-26_23:30:15 on domain   1:   28.34829 elapsed seconds
Timing for main: time 2019-11-26_23:30:30 on domain   1:    4.11905 elapsed seconds
Timing for main: time 2019-11-26_23:30:45 on domain   1:    4.12465 elapsed seconds
Timing for main: time 2019-11-26_23:31:00 on domain   1:    4.12439 elapsed seconds
Timing for main: time 2019-11-26_23:31:15 on domain   1:    4.12285 elapsed seconds
Timing for main: time 2019-11-26_23:31:30 on domain   1:    4.12220 elapsed seconds
Timing for main: time 2019-11-26_23:31:45 on domain   1:    4.12358 elapsed seconds
Timing for main: time 2019-11-26_23:32:00 on domain   1:    4.12268 elapsed seconds
Timing for main: time 2019-11-26_23:32:15 on domain   1:    4.11655 elapsed seconds
Timing for main: time 2019-11-26_23:32:30 on domain   1:    4.12012 elapsed seconds
Timing for main: time 2019-11-26_23:32:45 on domain   1:    4.11864 elapsed seconds
Timing for main: time 2019-11-26_23:33:00 on domain   1:    4.11834 elapsed seconds
Timing for main: time 2019-11-26_23:33:15 on domain   1:    4.12238 elapsed seconds
Timing for main: time 2019-11-26_23:33:30 on domain   1:    4.11894 elapsed seconds
Timing for main: time 2019-11-26_23:33:45 on domain   1:    4.11925 elapsed seconds
Timing for main: time 2019-11-26_23:34:00 on domain   1:    4.11975 elapsed seconds
Timing for main: time 2019-11-26_23:34:15 on domain   1:    4.11981 elapsed seconds
Timing for main: time 2019-11-26_23:34:30 on domain   1:    4.12129 elapsed seconds
Timing for main: time 2019-11-26_23:34:45 on domain   1:    4.12004 elapsed seconds
Timing for main: time 2019-11-26_23:35:00 on domain   1:    4.11812 elapsed seconds
Timing for main: time 2019-11-26_23:35:15 on domain   1:    4.11903 elapsed seconds
Timing for main: time 2019-11-26_23:35:30 on domain   1:    4.12138 elapsed seconds
Timing for main: time 2019-11-26_23:35:45 on domain   1:    4.11982 elapsed seconds
Timing for main: time 2019-11-26_23:36:00 on domain   1:    4.11860 elapsed seconds
Timing for main: time 2019-11-26_23:36:15 on domain   1:    4.12043 elapsed seconds
Timing for main: time 2019-11-26_23:36:30 on domain   1:    4.11854 elapsed seconds
Timing for main: time 2019-11-26_23:36:45 on domain   1:    4.11849 elapsed seconds
Timing for main: time 2019-11-26_23:37:00 on domain   1:    4.11700 elapsed seconds
Timing for main: time 2019-11-26_23:37:15 on domain   1:    4.12010 elapsed seconds
Timing for main: time 2019-11-26_23:37:30 on domain   1:    4.11648 elapsed seconds
Timing for main: time 2019-11-26_23:37:45 on domain   1:    4.12096 elapsed seconds
Timing for main: time 2019-11-26_23:38:00 on domain   1:    4.11976 elapsed seconds
Timing for main: time 2019-11-26_23:38:15 on domain   1:    4.11892 elapsed seconds
Timing for main: time 2019-11-26_23:38:30 on domain   1:    4.12039 elapsed seconds
Timing for main: time 2019-11-26_23:38:45 on domain   1:    4.11531 elapsed seconds
Timing for main: time 2019-11-26_23:39:00 on domain   1:    4.11701 elapsed seconds
Timing for main: time 2019-11-26_23:39:15 on domain   1:    4.11713 elapsed seconds
Timing for main: time 2019-11-26_23:39:30 on domain   1:    4.11478 elapsed seconds
Timing for main: time 2019-11-26_23:39:45 on domain   1:    4.11869 elapsed seconds
Timing for main: time 2019-11-26_23:40:00 on domain   1:    4.11937 elapsed seconds
Timing for main: time 2019-11-26_23:40:15 on domain   1:   28.31797 elapsed seconds
Timing for main: time 2019-11-26_23:40:30 on domain   1:    4.11852 elapsed seconds
Timing for main: time 2019-11-26_23:40:45 on domain   1:    4.11870 elapsed seconds
Timing for main: time 2019-11-26_23:41:00 on domain   1:    4.12083 elapsed seconds
Timing for main: time 2019-11-26_23:41:15 on domain   1:    4.12074 elapsed seconds
Timing for main: time 2019-11-26_23:41:30 on domain   1:    4.11961 elapsed seconds
Timing for main: time 2019-11-26_23:41:45 on domain   1:    4.12053 elapsed seconds
Timing for main: time 2019-11-26_23:42:00 on domain   1:    4.12051 elapsed seconds
Timing for main: time 2019-11-26_23:42:15 on domain   1:    4.12162 elapsed seconds
Timing for main: time 2019-11-26_23:42:30 on domain   1:    4.12053 elapsed seconds
Timing for main: time 2019-11-26_23:42:45 on domain   1:    4.12465 elapsed seconds
Timing for main: time 2019-11-26_23:43:00 on domain   1:    4.12382 elapsed seconds
Timing for main: time 2019-11-26_23:43:15 on domain   1:    4.12175 elapsed seconds
Timing for main: time 2019-11-26_23:43:30 on domain   1:    4.12145 elapsed seconds
Timing for main: time 2019-11-26_23:43:45 on domain   1:    4.12145 elapsed seconds
Timing for main: time 2019-11-26_23:44:00 on domain   1:    4.12010 elapsed seconds
Timing for main: time 2019-11-26_23:44:15 on domain   1:    4.11953 elapsed seconds
Timing for main: time 2019-11-26_23:44:30 on domain   1:    4.12193 elapsed seconds
Timing for main: time 2019-11-26_23:44:45 on domain   1:    4.11908 elapsed seconds
Timing for main: time 2019-11-26_23:45:00 on domain   1:    4.12093 elapsed seconds
Timing for main: time 2019-11-26_23:45:15 on domain   1:    4.12090 elapsed seconds
Timing for main: time 2019-11-26_23:45:30 on domain   1:    4.11919 elapsed seconds
Timing for main: time 2019-11-26_23:45:45 on domain   1:    4.12304 elapsed seconds
Timing for main: time 2019-11-26_23:46:00 on domain   1:    4.12467 elapsed seconds
Timing for main: time 2019-11-26_23:46:15 on domain   1:    4.12027 elapsed seconds
Timing for main: time 2019-11-26_23:46:30 on domain   1:    4.11925 elapsed seconds
Timing for main: time 2019-11-26_23:46:45 on domain   1:    4.12497 elapsed seconds
Timing for main: time 2019-11-26_23:47:00 on domain   1:    4.12119 elapsed seconds
Timing for main: time 2019-11-26_23:47:15 on domain   1:    4.12375 elapsed seconds
Timing for main: time 2019-11-26_23:47:30 on domain   1:    4.12170 elapsed seconds
Timing for main: time 2019-11-26_23:47:45 on domain   1:    4.12210 elapsed seconds
Timing for main: time 2019-11-26_23:48:00 on domain   1:    4.12143 elapsed seconds
Timing for main: time 2019-11-26_23:48:15 on domain   1:    4.12319 elapsed seconds
Timing for main: time 2019-11-26_23:48:30 on domain   1:    4.12263 elapsed seconds
Timing for main: time 2019-11-26_23:48:45 on domain   1:    4.12176 elapsed seconds
Timing for main: time 2019-11-26_23:49:00 on domain   1:    4.12293 elapsed seconds
Timing for main: time 2019-11-26_23:49:15 on domain   1:    4.11952 elapsed seconds
Timing for main: time 2019-11-26_23:49:30 on domain   1:    4.12518 elapsed seconds
Timing for main: time 2019-11-26_23:49:45 on domain   1:    4.12349 elapsed seconds
Timing for main: time 2019-11-26_23:50:00 on domain   1:    4.12511 elapsed seconds
Timing for main: time 2019-11-26_23:50:15 on domain   1:   27.47964 elapsed seconds
Timing for main: time 2019-11-26_23:50:30 on domain   1:    4.11826 elapsed seconds
Timing for main: time 2019-11-26_23:50:45 on domain   1:    4.12288 elapsed seconds
Timing for main: time 2019-11-26_23:51:00 on domain   1:    4.12154 elapsed seconds
Timing for main: time 2019-11-26_23:51:15 on domain   1:    4.11560 elapsed seconds
Timing for main: time 2019-11-26_23:51:30 on domain   1:    4.11689 elapsed seconds
Timing for main: time 2019-11-26_23:51:45 on domain   1:    4.11820 elapsed seconds
Timing for main: time 2019-11-26_23:52:00 on domain   1:    4.12099 elapsed seconds
Timing for main: time 2019-11-26_23:52:15 on domain   1:    4.11917 elapsed seconds
Timing for main: time 2019-11-26_23:52:30 on domain   1:    4.12582 elapsed seconds
Timing for main: time 2019-11-26_23:52:45 on domain   1:    4.12198 elapsed seconds
Timing for main: time 2019-11-26_23:53:00 on domain   1:    4.11891 elapsed seconds
Timing for main: time 2019-11-26_23:53:15 on domain   1:    4.11787 elapsed seconds
Timing for main: time 2019-11-26_23:53:30 on domain   1:    4.11920 elapsed seconds
Timing for main: time 2019-11-26_23:53:45 on domain   1:    4.11557 elapsed seconds
Timing for main: time 2019-11-26_23:54:00 on domain   1:    4.11618 elapsed seconds
Timing for main: time 2019-11-26_23:54:15 on domain   1:    4.12059 elapsed seconds
Timing for main: time 2019-11-26_23:54:30 on domain   1:    4.11834 elapsed seconds
Timing for main: time 2019-11-26_23:54:45 on domain   1:    4.11938 elapsed seconds
Timing for main: time 2019-11-26_23:55:00 on domain   1:    4.12495 elapsed seconds
Timing for main: time 2019-11-26_23:55:15 on domain   1:    4.11846 elapsed seconds
Timing for main: time 2019-11-26_23:55:30 on domain   1:    4.11604 elapsed seconds
Timing for main: time 2019-11-26_23:55:45 on domain   1:    4.11930 elapsed seconds
Timing for main: time 2019-11-26_23:56:00 on domain   1:    4.12748 elapsed seconds
Timing for main: time 2019-11-26_23:56:15 on domain   1:    4.13011 elapsed seconds
Timing for main: time 2019-11-26_23:56:30 on domain   1:    4.12636 elapsed seconds
Timing for main: time 2019-11-26_23:56:45 on domain   1:    4.11890 elapsed seconds
Timing for main: time 2019-11-26_23:57:00 on domain   1:    4.11463 elapsed seconds
Timing for main: time 2019-11-26_23:57:15 on domain   1:    4.12473 elapsed seconds
Timing for main: time 2019-11-26_23:57:30 on domain   1:    4.11631 elapsed seconds
Timing for main: time 2019-11-26_23:57:45 on domain   1:    4.11901 elapsed seconds
Timing for main: time 2019-11-26_23:58:00 on domain   1:    4.12121 elapsed seconds
Timing for main: time 2019-11-26_23:58:15 on domain   1:    4.12272 elapsed seconds
Timing for main: time 2019-11-26_23:58:30 on domain   1:    4.12290 elapsed seconds
Timing for main: time 2019-11-26_23:58:45 on domain   1:    4.12074 elapsed seconds
Timing for main: time 2019-11-26_23:59:00 on domain   1:    4.11750 elapsed seconds
Timing for main: time 2019-11-26_23:59:15 on domain   1:    4.12392 elapsed seconds
Timing for main: time 2019-11-26_23:59:30 on domain   1:    4.11864 elapsed seconds
Timing for main: time 2019-11-26_23:59:45 on domain   1:    4.12117 elapsed seconds
Timing for main: time 2019-11-27_00:00:00 on domain   1:    4.12003 elapsed seconds
 mediation_integrate.G        1249 DATASET=HISTORY
 mediation_integrate.G        1250  grid%id            1  grid%oid            2
Timing for Writing wrfout_d01_2019-11-27_00:00:00 for domain        1:    4.80749 elapsed seconds
wrf: SUCCESS COMPLETE WRF
