taskid: 0 hostname: x1006c0s5b0n1
 module_io_quilt_old.F        2931 F
Quilting with   1 groups of   0 I/O tasks.
 Ntasks in X            6 , ntasks in Y            8
*************************************
Configuring physics suite 'conus'

         mp_physics:      8
         cu_physics:      0*
      ra_lw_physics:      4
      ra_sw_physics:      4
     bl_pbl_physics:      2
  sf_sfclay_physics:      2
 sf_surface_physics:      2

(* = option overrides suite setting)
*************************************
Domain # 1: dx =  2500.000 m
WRF V4.7.1 MODEL
No git found or not a git repository, git commit version not available.
 *************************************
 Parent domain
 ids,ide,jds,jde            1        1501           1        1201
 ims,ime,jms,jme           -4         257          -4         157
 ips,ipe,jps,jpe            1         250           1         150
 *************************************
DYNAMICS OPTION: Eulerian Mass Coordinate
 alloc_space_field: domain            1 ,            1366414444  bytes allocated
med_initialdata_input: calling input_input
 Input data is acceptable to use: wrfinput_d01
 CURRENT DATE          = 2019-11-26_18:00:00
 SIMULATION START DATE = 2019-11-26_18:00:00
Timing for processing wrfinput file (stream 0) for domain        1:   26.27947 elapsed seconds
Max map factor in domain 1 =  1.02. Scale the dt in the model accordingly.
 D01: Time step                              =    15.0000000      (s)
 D01: Grid Distance                          =    2.50000000      (km)
 D01: Grid Distance Ratio dt/dx              =    6.00000000      (s/km)
 D01: Ratio Including Maximum Map Factor     =    6.13815594      (s/km)
 D01: NML defined reasonable_time_step_ratio =    6.00000000
 Climate GHG input from file from year         1765  to         2499
 CO2   range =    277.91300000000001        579.26400000000001       ppm
 N2O   range =    274.37200000000001        359.79800000000000       ppb
 CH4   range =    738.98599999999999        997.31100000000004       ppb
 CFC11 range =    0.0000000000000000        1.4000000000000000E-002  ppt
 CFC12 range =    0.0000000000000000        2.8809999999999998       ppt
 Normal ending of CAMtr_volume_mixing_ratio file
 GHG annual values from CAM trace gas file
 Year =         2019 , Julian day =          330
 CO2   =    4.1280616288937283E-004  volume mixing ratio
 N2O   =    3.3164731848847696E-007  volume mixing ratio
 CH4   =    1.9046224215321381E-006  volume mixing ratio
 CFC11 =    2.1972312207550427E-010  volume mixing ratio
 CFC12 =    4.9756474391800364E-010  volume mixing ratio
INPUT LandUse = "MODIFIED_IGBP_MODIS_NOAH"
 LANDUSE TYPE = "MODIFIED_IGBP_MODIS_NOAH" FOUND          61  CATEGORIES           2  SEASONS WATER CATEGORY =           17  SNOW CATEGORY =           15
INITIALIZE THREE Noah LSM RELATED TABLES
Skipping over LUTYPE = USGS
 LANDUSE TYPE = MODIFIED_IGBP_MODIS_NOAH FOUND          20  CATEGORIES
 INPUT SOIL TEXTURE CLASSIFICATION = STAS
 SOIL TEXTURE CLASSIFICATION = STAS FOUND          19  CATEGORIES
ThompMP: read qr_acr_qg_V4.dat     instead of computing
ThompMP: read qr_acr_qsV2.dat instead of computing
ThompMP: read freezeH2O.dat instead of computing
 mediation_integrate.G        1249 DATASET=HISTORY
 mediation_integrate.G        1250  grid%id            1  grid%oid            1
Timing for Writing wrfout_d01_2019-11-26_18:00:00 for domain        1:    4.85558 elapsed seconds
 Input data is acceptable to use: wrfbdy_d01
Timing for processing lateral boundary for domain        1:    0.59510 elapsed seconds
WRF NUMBER OF TILES FROM OMP_GET_MAX_THREADS =   4
 Tile Strategy is not specified. Assuming 1D-Y
WRF TILE   1 IS      1 IE    250 JS      1 JE     38
WRF TILE   2 IS      1 IE    250 JS     39 JE     75
WRF TILE   3 IS      1 IE    250 JS     76 JE    112
WRF TILE   4 IS      1 IE    250 JS    113 JE    150
WRF NUMBER OF TILES =   4
Timing for main: time 2019-11-26_18:00:15 on domain   1:   20.30429 elapsed seconds
Timing for main: time 2019-11-26_18:00:30 on domain   1:    1.83988 elapsed seconds
Timing for main: time 2019-11-26_18:00:45 on domain   1:    1.84090 elapsed seconds
Timing for main: time 2019-11-26_18:01:00 on domain   1:    1.84271 elapsed seconds
Timing for main: time 2019-11-26_18:01:15 on domain   1:    1.84198 elapsed seconds
Timing for main: time 2019-11-26_18:01:30 on domain   1:    1.84017 elapsed seconds
Timing for main: time 2019-11-26_18:01:45 on domain   1:    1.84063 elapsed seconds
Timing for main: time 2019-11-26_18:02:00 on domain   1:    1.83691 elapsed seconds
Timing for main: time 2019-11-26_18:02:15 on domain   1:    1.84208 elapsed seconds
Timing for main: time 2019-11-26_18:02:30 on domain   1:    1.84057 elapsed seconds
Timing for main: time 2019-11-26_18:02:45 on domain   1:    1.84533 elapsed seconds
Timing for main: time 2019-11-26_18:03:00 on domain   1:    1.84009 elapsed seconds
Timing for main: time 2019-11-26_18:03:15 on domain   1:    1.84371 elapsed seconds
Timing for main: time 2019-11-26_18:03:30 on domain   1:    1.84710 elapsed seconds
Timing for main: time 2019-11-26_18:03:45 on domain   1:    1.84405 elapsed seconds
Timing for main: time 2019-11-26_18:04:00 on domain   1:    1.84460 elapsed seconds
Timing for main: time 2019-11-26_18:04:15 on domain   1:    1.84309 elapsed seconds
Timing for main: time 2019-11-26_18:04:30 on domain   1:    1.84545 elapsed seconds
Timing for main: time 2019-11-26_18:04:45 on domain   1:    1.84246 elapsed seconds
Timing for main: time 2019-11-26_18:05:00 on domain   1:    1.84276 elapsed seconds
Timing for main: time 2019-11-26_18:05:15 on domain   1:    1.84810 elapsed seconds
Timing for main: time 2019-11-26_18:05:30 on domain   1:    1.84500 elapsed seconds
Timing for main: time 2019-11-26_18:05:45 on domain   1:    1.84868 elapsed seconds
Timing for main: time 2019-11-26_18:06:00 on domain   1:    1.84510 elapsed seconds
Timing for main: time 2019-11-26_18:06:15 on domain   1:    1.84641 elapsed seconds
Timing for main: time 2019-11-26_18:06:30 on domain   1:    1.84909 elapsed seconds
Timing for main: time 2019-11-26_18:06:45 on domain   1:    1.84746 elapsed seconds
Timing for main: time 2019-11-26_18:07:00 on domain   1:    1.84730 elapsed seconds
Timing for main: time 2019-11-26_18:07:15 on domain   1:    1.84775 elapsed seconds
Timing for main: time 2019-11-26_18:07:30 on domain   1:    1.84772 elapsed seconds
Timing for main: time 2019-11-26_18:07:45 on domain   1:    1.85118 elapsed seconds
Timing for main: time 2019-11-26_18:08:00 on domain   1:    1.84367 elapsed seconds
Timing for main: time 2019-11-26_18:08:15 on domain   1:    1.85000 elapsed seconds
Timing for main: time 2019-11-26_18:08:30 on domain   1:    1.85063 elapsed seconds
Timing for main: time 2019-11-26_18:08:45 on domain   1:    1.85044 elapsed seconds
Timing for main: time 2019-11-26_18:09:00 on domain   1:    1.84835 elapsed seconds
Timing for main: time 2019-11-26_18:09:15 on domain   1:    1.85075 elapsed seconds
Timing for main: time 2019-11-26_18:09:30 on domain   1:    1.84757 elapsed seconds
Timing for main: time 2019-11-26_18:09:45 on domain   1:    1.84943 elapsed seconds
Timing for main: time 2019-11-26_18:10:00 on domain   1:    1.85063 elapsed seconds
Timing for main: time 2019-11-26_18:10:15 on domain   1:   15.96364 elapsed seconds
Timing for main: time 2019-11-26_18:10:30 on domain   1:    2.41026 elapsed seconds
Timing for main: time 2019-11-26_18:10:45 on domain   1:    1.85580 elapsed seconds
Timing for main: time 2019-11-26_18:11:00 on domain   1:    1.85765 elapsed seconds
Timing for main: time 2019-11-26_18:11:15 on domain   1:    1.85476 elapsed seconds
Timing for main: time 2019-11-26_18:11:30 on domain   1:    1.85428 elapsed seconds
Timing for main: time 2019-11-26_18:11:45 on domain   1:    1.85445 elapsed seconds
Timing for main: time 2019-11-26_18:12:00 on domain   1:    1.85584 elapsed seconds
Timing for main: time 2019-11-26_18:12:15 on domain   1:    1.85617 elapsed seconds
Timing for main: time 2019-11-26_18:12:30 on domain   1:    1.85898 elapsed seconds
Timing for main: time 2019-11-26_18:12:45 on domain   1:    1.85875 elapsed seconds
Timing for main: time 2019-11-26_18:13:00 on domain   1:    2.07723 elapsed seconds
Timing for main: time 2019-11-26_18:13:15 on domain   1:    1.85619 elapsed seconds
Timing for main: time 2019-11-26_18:13:30 on domain   1:    1.85853 elapsed seconds
Timing for main: time 2019-11-26_18:13:45 on domain   1:    1.85942 elapsed seconds
Timing for main: time 2019-11-26_18:14:00 on domain   1:    1.86103 elapsed seconds
Timing for main: time 2019-11-26_18:14:15 on domain   1:    1.86208 elapsed seconds
Timing for main: time 2019-11-26_18:14:30 on domain   1:    1.86268 elapsed seconds
Timing for main: time 2019-11-26_18:14:45 on domain   1:    1.86332 elapsed seconds
Timing for main: time 2019-11-26_18:15:00 on domain   1:    1.86110 elapsed seconds
Timing for main: time 2019-11-26_18:15:15 on domain   1:    1.86191 elapsed seconds
Timing for main: time 2019-11-26_18:15:30 on domain   1:    1.86424 elapsed seconds
Timing for main: time 2019-11-26_18:15:45 on domain   1:    1.86200 elapsed seconds
Timing for main: time 2019-11-26_18:16:00 on domain   1:    1.86443 elapsed seconds
Timing for main: time 2019-11-26_18:16:15 on domain   1:    1.86479 elapsed seconds
Timing for main: time 2019-11-26_18:16:30 on domain   1:    1.86511 elapsed seconds
Timing for main: time 2019-11-26_18:16:45 on domain   1:    1.86401 elapsed seconds
Timing for main: time 2019-11-26_18:17:00 on domain   1:    1.86471 elapsed seconds
Timing for main: time 2019-11-26_18:17:15 on domain   1:    1.86401 elapsed seconds
Timing for main: time 2019-11-26_18:17:30 on domain   1:    1.86743 elapsed seconds
Timing for main: time 2019-11-26_18:17:45 on domain   1:    1.86945 elapsed seconds
Timing for main: time 2019-11-26_18:18:00 on domain   1:    1.86870 elapsed seconds
Timing for main: time 2019-11-26_18:18:15 on domain   1:    1.87033 elapsed seconds
Timing for main: time 2019-11-26_18:18:30 on domain   1:    1.86711 elapsed seconds
Timing for main: time 2019-11-26_18:18:45 on domain   1:    1.86944 elapsed seconds
Timing for main: time 2019-11-26_18:19:00 on domain   1:    1.86712 elapsed seconds
Timing for main: time 2019-11-26_18:19:15 on domain   1:    1.86992 elapsed seconds
Timing for main: time 2019-11-26_18:19:30 on domain   1:    1.87189 elapsed seconds
Timing for main: time 2019-11-26_18:19:45 on domain   1:    1.87326 elapsed seconds
Timing for main: time 2019-11-26_18:20:00 on domain   1:    1.87337 elapsed seconds
Timing for main: time 2019-11-26_18:20:15 on domain   1:   15.26033 elapsed seconds
Timing for main: time 2019-11-26_18:20:30 on domain   1:    1.87116 elapsed seconds
Timing for main: time 2019-11-26_18:20:45 on domain   1:    1.87280 elapsed seconds
Timing for main: time 2019-11-26_18:21:00 on domain   1:    1.87277 elapsed seconds
Timing for main: time 2019-11-26_18:21:15 on domain   1:    1.87579 elapsed seconds
Timing for main: time 2019-11-26_18:21:30 on domain   1:    1.87569 elapsed seconds
Timing for main: time 2019-11-26_18:21:45 on domain   1:    1.87637 elapsed seconds
Timing for main: time 2019-11-26_18:22:00 on domain   1:    1.87571 elapsed seconds
Timing for main: time 2019-11-26_18:22:15 on domain   1:    1.87877 elapsed seconds
Timing for main: time 2019-11-26_18:22:30 on domain   1:    1.87806 elapsed seconds
Timing for main: time 2019-11-26_18:22:45 on domain   1:    1.87892 elapsed seconds
Timing for main: time 2019-11-26_18:23:00 on domain   1:    1.87917 elapsed seconds
Timing for main: time 2019-11-26_18:23:15 on domain   1:    1.88055 elapsed seconds
Timing for main: time 2019-11-26_18:23:30 on domain   1:    1.88007 elapsed seconds
Timing for main: time 2019-11-26_18:23:45 on domain   1:    1.88027 elapsed seconds
Timing for main: time 2019-11-26_18:24:00 on domain   1:    1.88025 elapsed seconds
Timing for main: time 2019-11-26_18:24:15 on domain   1:    1.88171 elapsed seconds
Timing for main: time 2019-11-26_18:24:30 on domain   1:    1.88430 elapsed seconds
Timing for main: time 2019-11-26_18:24:45 on domain   1:    2.00305 elapsed seconds
Timing for main: time 2019-11-26_18:25:00 on domain   1:    3.27680 elapsed seconds
Timing for main: time 2019-11-26_18:25:15 on domain   1:    1.89198 elapsed seconds
Timing for main: time 2019-11-26_18:25:30 on domain   1:    1.89349 elapsed seconds
Timing for main: time 2019-11-26_18:25:45 on domain   1:    1.88915 elapsed seconds
Timing for main: time 2019-11-26_18:26:00 on domain   1:    1.88880 elapsed seconds
Timing for main: time 2019-11-26_18:26:15 on domain   1:    1.89025 elapsed seconds
Timing for main: time 2019-11-26_18:26:30 on domain   1:    1.88795 elapsed seconds
Timing for main: time 2019-11-26_18:26:45 on domain   1:    1.88867 elapsed seconds
Timing for main: time 2019-11-26_18:27:00 on domain   1:    1.89366 elapsed seconds
Timing for main: time 2019-11-26_18:27:15 on domain   1:    2.12778 elapsed seconds
Timing for main: time 2019-11-26_18:27:30 on domain   1:    1.89203 elapsed seconds
Timing for main: time 2019-11-26_18:27:45 on domain   1:    1.89263 elapsed seconds
Timing for main: time 2019-11-26_18:28:00 on domain   1:    1.89416 elapsed seconds
Timing for main: time 2019-11-26_18:28:15 on domain   1:    1.89492 elapsed seconds
Timing for main: time 2019-11-26_18:28:30 on domain   1:    1.89778 elapsed seconds
Timing for main: time 2019-11-26_18:28:45 on domain   1:    1.89409 elapsed seconds
Timing for main: time 2019-11-26_18:29:00 on domain   1:    1.89668 elapsed seconds
Timing for main: time 2019-11-26_18:29:15 on domain   1:    1.90002 elapsed seconds
Timing for main: time 2019-11-26_18:29:30 on domain   1:    1.89802 elapsed seconds
Timing for main: time 2019-11-26_18:29:45 on domain   1:    1.89929 elapsed seconds
Timing for main: time 2019-11-26_18:30:00 on domain   1:    1.89892 elapsed seconds
Timing for main: time 2019-11-26_18:30:15 on domain   1:   15.47745 elapsed seconds
Timing for main: time 2019-11-26_18:30:30 on domain   1:    1.90282 elapsed seconds
Timing for main: time 2019-11-26_18:30:45 on domain   1:    1.90371 elapsed seconds
Timing for main: time 2019-11-26_18:31:00 on domain   1:    1.90596 elapsed seconds
Timing for main: time 2019-11-26_18:31:15 on domain   1:    1.90588 elapsed seconds
Timing for main: time 2019-11-26_18:31:30 on domain   1:    1.90660 elapsed seconds
Timing for main: time 2019-11-26_18:31:45 on domain   1:    1.90327 elapsed seconds
Timing for main: time 2019-11-26_18:32:00 on domain   1:    1.90865 elapsed seconds
Timing for main: time 2019-11-26_18:32:15 on domain   1:    1.90432 elapsed seconds
Timing for main: time 2019-11-26_18:32:30 on domain   1:    1.90982 elapsed seconds
Timing for main: time 2019-11-26_18:32:45 on domain   1:    1.90686 elapsed seconds
Timing for main: time 2019-11-26_18:33:00 on domain   1:    1.90812 elapsed seconds
Timing for main: time 2019-11-26_18:33:15 on domain   1:    1.90718 elapsed seconds
Timing for main: time 2019-11-26_18:33:30 on domain   1:    1.90847 elapsed seconds
Timing for main: time 2019-11-26_18:33:45 on domain   1:    1.91076 elapsed seconds
Timing for main: time 2019-11-26_18:34:00 on domain   1:    1.91240 elapsed seconds
Timing for main: time 2019-11-26_18:34:15 on domain   1:    1.91126 elapsed seconds
Timing for main: time 2019-11-26_18:34:30 on domain   1:    1.91173 elapsed seconds
Timing for main: time 2019-11-26_18:34:45 on domain   1:    1.90930 elapsed seconds
Timing for main: time 2019-11-26_18:35:00 on domain   1:    1.91233 elapsed seconds
Timing for main: time 2019-11-26_18:35:15 on domain   1:    1.90791 elapsed seconds
Timing for main: time 2019-11-26_18:35:30 on domain   1:    1.91295 elapsed seconds
Timing for main: time 2019-11-26_18:35:45 on domain   1:    1.90994 elapsed seconds
Timing for main: time 2019-11-26_18:36:00 on domain   1:    1.91513 elapsed seconds
Timing for main: time 2019-11-26_18:36:15 on domain   1:    1.90929 elapsed seconds
Timing for main: time 2019-11-26_18:36:30 on domain   1:    1.91719 elapsed seconds
Timing for main: time 2019-11-26_18:36:45 on domain   1:    1.91400 elapsed seconds
Timing for main: time 2019-11-26_18:37:00 on domain   1:    1.91664 elapsed seconds
Timing for main: time 2019-11-26_18:37:15 on domain   1:    1.91517 elapsed seconds
Timing for main: time 2019-11-26_18:37:30 on domain   1:    1.91887 elapsed seconds
Timing for main: time 2019-11-26_18:37:45 on domain   1:    1.91355 elapsed seconds
Timing for main: time 2019-11-26_18:38:00 on domain   1:    1.91821 elapsed seconds
Timing for main: time 2019-11-26_18:38:15 on domain   1:    1.91204 elapsed seconds
Timing for main: time 2019-11-26_18:38:30 on domain   1:    1.91872 elapsed seconds
Timing for main: time 2019-11-26_18:38:45 on domain   1:    1.91562 elapsed seconds
Timing for main: time 2019-11-26_18:39:00 on domain   1:    1.91848 elapsed seconds
Timing for main: time 2019-11-26_18:39:15 on domain   1:    3.29747 elapsed seconds
Timing for main: time 2019-11-26_18:39:30 on domain   1:    2.08529 elapsed seconds
Timing for main: time 2019-11-26_18:39:45 on domain   1:    1.91969 elapsed seconds
Timing for main: time 2019-11-26_18:40:00 on domain   1:    1.92006 elapsed seconds
Timing for main: time 2019-11-26_18:40:15 on domain   1:   15.61649 elapsed seconds
Timing for main: time 2019-11-26_18:40:30 on domain   1:    1.92512 elapsed seconds
Timing for main: time 2019-11-26_18:40:45 on domain   1:    1.92356 elapsed seconds
Timing for main: time 2019-11-26_18:41:00 on domain   1:    1.92419 elapsed seconds
Timing for main: time 2019-11-26_18:41:15 on domain   1:    1.92852 elapsed seconds
Timing for main: time 2019-11-26_18:41:30 on domain   1:    1.92552 elapsed seconds
Timing for main: time 2019-11-26_18:41:45 on domain   1:    1.92745 elapsed seconds
Timing for main: time 2019-11-26_18:42:00 on domain   1:    1.92496 elapsed seconds
Timing for main: time 2019-11-26_18:42:15 on domain   1:    1.92601 elapsed seconds
Timing for main: time 2019-11-26_18:42:30 on domain   1:    1.92852 elapsed seconds
Timing for main: time 2019-11-26_18:42:45 on domain   1:    1.93047 elapsed seconds
Timing for main: time 2019-11-26_18:43:00 on domain   1:    1.92679 elapsed seconds
Timing for main: time 2019-11-26_18:43:15 on domain   1:    1.93101 elapsed seconds
Timing for main: time 2019-11-26_18:43:30 on domain   1:    1.92991 elapsed seconds
Timing for main: time 2019-11-26_18:43:45 on domain   1:    1.92904 elapsed seconds
Timing for main: time 2019-11-26_18:44:00 on domain   1:    1.93081 elapsed seconds
Timing for main: time 2019-11-26_18:44:15 on domain   1:    1.93386 elapsed seconds
Timing for main: time 2019-11-26_18:44:30 on domain   1:    1.93074 elapsed seconds
Timing for main: time 2019-11-26_18:44:45 on domain   1:    1.93110 elapsed seconds
Timing for main: time 2019-11-26_18:45:00 on domain   1:    1.93133 elapsed seconds
Timing for main: time 2019-11-26_18:45:15 on domain   1:    1.93253 elapsed seconds
Timing for main: time 2019-11-26_18:45:30 on domain   1:    1.93556 elapsed seconds
Timing for main: time 2019-11-26_18:45:45 on domain   1:    1.93470 elapsed seconds
Timing for main: time 2019-11-26_18:46:00 on domain   1:    1.93480 elapsed seconds
Timing for main: time 2019-11-26_18:46:15 on domain   1:    1.93874 elapsed seconds
Timing for main: time 2019-11-26_18:46:30 on domain   1:    1.93684 elapsed seconds
Timing for main: time 2019-11-26_18:46:45 on domain   1:    1.93810 elapsed seconds
Timing for main: time 2019-11-26_18:47:00 on domain   1:    1.93896 elapsed seconds
Timing for main: time 2019-11-26_18:47:15 on domain   1:    1.93938 elapsed seconds
Timing for main: time 2019-11-26_18:47:30 on domain   1:    1.93902 elapsed seconds
Timing for main: time 2019-11-26_18:47:45 on domain   1:    1.94082 elapsed seconds
Timing for main: time 2019-11-26_18:48:00 on domain   1:    1.94218 elapsed seconds
Timing for main: time 2019-11-26_18:48:15 on domain   1:    1.94194 elapsed seconds
Timing for main: time 2019-11-26_18:48:30 on domain   1:    1.93957 elapsed seconds
Timing for main: time 2019-11-26_18:48:45 on domain   1:    1.94347 elapsed seconds
Timing for main: time 2019-11-26_18:49:00 on domain   1:    1.94258 elapsed seconds
Timing for main: time 2019-11-26_18:49:15 on domain   1:    1.95086 elapsed seconds
Timing for main: time 2019-11-26_18:49:30 on domain   1:    1.94544 elapsed seconds
Timing for main: time 2019-11-26_18:49:45 on domain   1:    1.94815 elapsed seconds
Timing for main: time 2019-11-26_18:50:00 on domain   1:    1.94675 elapsed seconds
Timing for main: time 2019-11-26_18:50:15 on domain   1:   15.68471 elapsed seconds
Timing for main: time 2019-11-26_18:50:30 on domain   1:    1.94968 elapsed seconds
Timing for main: time 2019-11-26_18:50:45 on domain   1:    1.94975 elapsed seconds
Timing for main: time 2019-11-26_18:51:00 on domain   1:    1.95240 elapsed seconds
Timing for main: time 2019-11-26_18:51:15 on domain   1:    1.95319 elapsed seconds
Timing for main: time 2019-11-26_18:51:30 on domain   1:    1.95056 elapsed seconds
Timing for main: time 2019-11-26_18:51:45 on domain   1:    2.91058 elapsed seconds
Timing for main: time 2019-11-26_18:52:00 on domain   1:    2.27210 elapsed seconds
Timing for main: time 2019-11-26_18:52:15 on domain   1:    1.95798 elapsed seconds
Timing for main: time 2019-11-26_18:52:30 on domain   1:    1.96033 elapsed seconds
Timing for main: time 2019-11-26_18:52:45 on domain   1:    1.95984 elapsed seconds
Timing for main: time 2019-11-26_18:53:00 on domain   1:    1.99717 elapsed seconds
Timing for main: time 2019-11-26_18:53:15 on domain   1:    2.15026 elapsed seconds
Timing for main: time 2019-11-26_18:53:30 on domain   1:    1.95731 elapsed seconds
Timing for main: time 2019-11-26_18:53:45 on domain   1:    1.95768 elapsed seconds
Timing for main: time 2019-11-26_18:54:00 on domain   1:    1.96112 elapsed seconds
Timing for main: time 2019-11-26_18:54:15 on domain   1:    1.96352 elapsed seconds
Timing for main: time 2019-11-26_18:54:30 on domain   1:    1.95931 elapsed seconds
Timing for main: time 2019-11-26_18:54:45 on domain   1:    1.96056 elapsed seconds
Timing for main: time 2019-11-26_18:55:00 on domain   1:    1.96147 elapsed seconds
Timing for main: time 2019-11-26_18:55:15 on domain   1:    1.96395 elapsed seconds
Timing for main: time 2019-11-26_18:55:30 on domain   1:    1.96164 elapsed seconds
Timing for main: time 2019-11-26_18:55:45 on domain   1:    1.96419 elapsed seconds
Timing for main: time 2019-11-26_18:56:00 on domain   1:    1.96636 elapsed seconds
Timing for main: time 2019-11-26_18:56:15 on domain   1:    1.96546 elapsed seconds
Timing for main: time 2019-11-26_18:56:30 on domain   1:    1.96876 elapsed seconds
Timing for main: time 2019-11-26_18:56:45 on domain   1:    1.97120 elapsed seconds
Timing for main: time 2019-11-26_18:57:00 on domain   1:    1.96958 elapsed seconds
Timing for main: time 2019-11-26_18:57:15 on domain   1:    1.96924 elapsed seconds
Timing for main: time 2019-11-26_18:57:30 on domain   1:    1.97072 elapsed seconds
Timing for main: time 2019-11-26_18:57:45 on domain   1:    1.97073 elapsed seconds
Timing for main: time 2019-11-26_18:58:00 on domain   1:    1.97155 elapsed seconds
Timing for main: time 2019-11-26_18:58:15 on domain   1:    1.97423 elapsed seconds
Timing for main: time 2019-11-26_18:58:30 on domain   1:    1.97473 elapsed seconds
Timing for main: time 2019-11-26_18:58:45 on domain   1:    1.97538 elapsed seconds
Timing for main: time 2019-11-26_18:59:00 on domain   1:    1.97421 elapsed seconds
Timing for main: time 2019-11-26_18:59:15 on domain   1:    1.97501 elapsed seconds
Timing for main: time 2019-11-26_18:59:30 on domain   1:    1.97663 elapsed seconds
Timing for main: time 2019-11-26_18:59:45 on domain   1:    1.97493 elapsed seconds
Timing for main: time 2019-11-26_19:00:00 on domain   1:    1.97715 elapsed seconds
 mediation_integrate.G        1249 DATASET=HISTORY
 mediation_integrate.G        1250  grid%id            1  grid%oid            2
Timing for Writing wrfout_d01_2019-11-26_19:00:00 for domain        1:    4.63220 elapsed seconds
Timing for main: time 2019-11-26_19:00:15 on domain   1:   20.45898 elapsed seconds
Timing for main: time 2019-11-26_19:00:30 on domain   1:    1.98049 elapsed seconds
Timing for main: time 2019-11-26_19:00:45 on domain   1:    1.98143 elapsed seconds
Timing for main: time 2019-11-26_19:01:00 on domain   1:    1.98029 elapsed seconds
Timing for main: time 2019-11-26_19:01:15 on domain   1:    1.98044 elapsed seconds
Timing for main: time 2019-11-26_19:01:30 on domain   1:    1.98229 elapsed seconds
Timing for main: time 2019-11-26_19:01:45 on domain   1:    1.98594 elapsed seconds
Timing for main: time 2019-11-26_19:02:00 on domain   1:    1.98340 elapsed seconds
Timing for main: time 2019-11-26_19:02:15 on domain   1:    1.98142 elapsed seconds
Timing for main: time 2019-11-26_19:02:30 on domain   1:    1.98191 elapsed seconds
Timing for main: time 2019-11-26_19:02:45 on domain   1:    1.98343 elapsed seconds
Timing for main: time 2019-11-26_19:03:00 on domain   1:    1.98642 elapsed seconds
Timing for main: time 2019-11-26_19:03:15 on domain   1:    1.98365 elapsed seconds
Timing for main: time 2019-11-26_19:03:30 on domain   1:    1.98986 elapsed seconds
Timing for main: time 2019-11-26_19:03:45 on domain   1:    1.98580 elapsed seconds
Timing for main: time 2019-11-26_19:04:00 on domain   1:    1.98848 elapsed seconds
Timing for main: time 2019-11-26_19:04:15 on domain   1:    1.98510 elapsed seconds
Timing for main: time 2019-11-26_19:04:30 on domain   1:    1.98900 elapsed seconds
Timing for main: time 2019-11-26_19:04:45 on domain   1:    2.27403 elapsed seconds
Timing for main: time 2019-11-26_19:05:00 on domain   1:    3.03254 elapsed seconds
Timing for main: time 2019-11-26_19:05:15 on domain   1:    1.98882 elapsed seconds
Timing for main: time 2019-11-26_19:05:30 on domain   1:    1.98963 elapsed seconds
Timing for main: time 2019-11-26_19:05:45 on domain   1:    1.98697 elapsed seconds
Timing for main: time 2019-11-26_19:06:00 on domain   1:    1.98915 elapsed seconds
Timing for main: time 2019-11-26_19:06:15 on domain   1:    2.18045 elapsed seconds
Timing for main: time 2019-11-26_19:06:30 on domain   1:    1.98976 elapsed seconds
Timing for main: time 2019-11-26_19:06:45 on domain   1:    1.99145 elapsed seconds
Timing for main: time 2019-11-26_19:07:00 on domain   1:    1.99047 elapsed seconds
Timing for main: time 2019-11-26_19:07:15 on domain   1:    1.98711 elapsed seconds
Timing for main: time 2019-11-26_19:07:30 on domain   1:    1.99078 elapsed seconds
Timing for main: time 2019-11-26_19:07:45 on domain   1:    1.99089 elapsed seconds
Timing for main: time 2019-11-26_19:08:00 on domain   1:    1.99273 elapsed seconds
Timing for main: time 2019-11-26_19:08:15 on domain   1:    1.99204 elapsed seconds
Timing for main: time 2019-11-26_19:08:30 on domain   1:    1.99462 elapsed seconds
Timing for main: time 2019-11-26_19:08:45 on domain   1:    1.99525 elapsed seconds
Timing for main: time 2019-11-26_19:09:00 on domain   1:    1.99739 elapsed seconds
Timing for main: time 2019-11-26_19:09:15 on domain   1:    1.99747 elapsed seconds
Timing for main: time 2019-11-26_19:09:30 on domain   1:    1.99403 elapsed seconds
Timing for main: time 2019-11-26_19:09:45 on domain   1:    1.99943 elapsed seconds
Timing for main: time 2019-11-26_19:10:00 on domain   1:    1.99835 elapsed seconds
Timing for main: time 2019-11-26_19:10:15 on domain   1:   15.91837 elapsed seconds
Timing for main: time 2019-11-26_19:10:30 on domain   1:    1.99983 elapsed seconds
Timing for main: time 2019-11-26_19:10:45 on domain   1:    2.00397 elapsed seconds
Timing for main: time 2019-11-26_19:11:00 on domain   1:    2.00188 elapsed seconds
Timing for main: time 2019-11-26_19:11:15 on domain   1:    1.99869 elapsed seconds
Timing for main: time 2019-11-26_19:11:30 on domain   1:    2.00508 elapsed seconds
Timing for main: time 2019-11-26_19:11:45 on domain   1:    2.00443 elapsed seconds
Timing for main: time 2019-11-26_19:12:00 on domain   1:    2.00422 elapsed seconds
Timing for main: time 2019-11-26_19:12:15 on domain   1:    2.00555 elapsed seconds
Timing for main: time 2019-11-26_19:12:30 on domain   1:    2.00449 elapsed seconds
Timing for main: time 2019-11-26_19:12:45 on domain   1:    2.00560 elapsed seconds
Timing for main: time 2019-11-26_19:13:00 on domain   1:    2.00680 elapsed seconds
Timing for main: time 2019-11-26_19:13:15 on domain   1:    2.00462 elapsed seconds
Timing for main: time 2019-11-26_19:13:30 on domain   1:    2.00645 elapsed seconds
Timing for main: time 2019-11-26_19:13:45 on domain   1:    2.00564 elapsed seconds
Timing for main: time 2019-11-26_19:14:00 on domain   1:    2.00508 elapsed seconds
Timing for main: time 2019-11-26_19:14:15 on domain   1:    2.00723 elapsed seconds
Timing for main: time 2019-11-26_19:14:30 on domain   1:    2.00919 elapsed seconds
Timing for main: time 2019-11-26_19:14:45 on domain   1:    2.00862 elapsed seconds
Timing for main: time 2019-11-26_19:15:00 on domain   1:    2.00530 elapsed seconds
Timing for main: time 2019-11-26_19:15:15 on domain   1:    2.00909 elapsed seconds
Timing for main: time 2019-11-26_19:15:30 on domain   1:    2.00825 elapsed seconds
Timing for main: time 2019-11-26_19:15:45 on domain   1:    2.00727 elapsed seconds
Timing for main: time 2019-11-26_19:16:00 on domain   1:    2.01037 elapsed seconds
Timing for main: time 2019-11-26_19:16:15 on domain   1:    2.00636 elapsed seconds
Timing for main: time 2019-11-26_19:16:30 on domain   1:    2.00897 elapsed seconds
Timing for main: time 2019-11-26_19:16:45 on domain   1:    2.00795 elapsed seconds
Timing for main: time 2019-11-26_19:17:00 on domain   1:    2.01272 elapsed seconds
Timing for main: time 2019-11-26_19:17:15 on domain   1:    2.01093 elapsed seconds
Timing for main: time 2019-11-26_19:17:30 on domain   1:    2.01109 elapsed seconds
Timing for main: time 2019-11-26_19:17:45 on domain   1:    2.01311 elapsed seconds
Timing for main: time 2019-11-26_19:18:00 on domain   1:    2.01155 elapsed seconds
Timing for main: time 2019-11-26_19:18:15 on domain   1:    2.01208 elapsed seconds
Timing for main: time 2019-11-26_19:18:30 on domain   1:    3.48667 elapsed seconds
Timing for main: time 2019-11-26_19:18:45 on domain   1:    2.05589 elapsed seconds
Timing for main: time 2019-11-26_19:19:00 on domain   1:    2.02020 elapsed seconds
Timing for main: time 2019-11-26_19:19:15 on domain   1:    2.01396 elapsed seconds
Timing for main: time 2019-11-26_19:19:30 on domain   1:    2.24426 elapsed seconds
Timing for main: time 2019-11-26_19:19:45 on domain   1:    2.01550 elapsed seconds
Timing for main: time 2019-11-26_19:20:00 on domain   1:    2.01656 elapsed seconds
Timing for main: time 2019-11-26_19:20:15 on domain   1:   16.05806 elapsed seconds
Timing for main: time 2019-11-26_19:20:30 on domain   1:    2.01556 elapsed seconds
Timing for main: time 2019-11-26_19:20:45 on domain   1:    2.01612 elapsed seconds
Timing for main: time 2019-11-26_19:21:00 on domain   1:    2.01448 elapsed seconds
Timing for main: time 2019-11-26_19:21:15 on domain   1:    2.01706 elapsed seconds
Timing for main: time 2019-11-26_19:21:30 on domain   1:    2.01535 elapsed seconds
Timing for main: time 2019-11-26_19:21:45 on domain   1:    2.01801 elapsed seconds
Timing for main: time 2019-11-26_19:22:00 on domain   1:    2.01452 elapsed seconds
Timing for main: time 2019-11-26_19:22:15 on domain   1:    2.02139 elapsed seconds
Timing for main: time 2019-11-26_19:22:30 on domain   1:    2.01635 elapsed seconds
Timing for main: time 2019-11-26_19:22:45 on domain   1:    2.01789 elapsed seconds
Timing for main: time 2019-11-26_19:23:00 on domain   1:    2.02048 elapsed seconds
Timing for main: time 2019-11-26_19:23:15 on domain   1:    2.01772 elapsed seconds
Timing for main: time 2019-11-26_19:23:30 on domain   1:    2.01695 elapsed seconds
Timing for main: time 2019-11-26_19:23:45 on domain   1:    2.02243 elapsed seconds
Timing for main: time 2019-11-26_19:24:00 on domain   1:    2.01804 elapsed seconds
Timing for main: time 2019-11-26_19:24:15 on domain   1:    2.02064 elapsed seconds
Timing for main: time 2019-11-26_19:24:30 on domain   1:    2.02235 elapsed seconds
Timing for main: time 2019-11-26_19:24:45 on domain   1:    2.01981 elapsed seconds
Timing for main: time 2019-11-26_19:25:00 on domain   1:    2.01568 elapsed seconds
Timing for main: time 2019-11-26_19:25:15 on domain   1:    2.01936 elapsed seconds
Timing for main: time 2019-11-26_19:25:30 on domain   1:    2.01776 elapsed seconds
Timing for main: time 2019-11-26_19:25:45 on domain   1:    2.02240 elapsed seconds
Timing for main: time 2019-11-26_19:26:00 on domain   1:    2.01410 elapsed seconds
Timing for main: time 2019-11-26_19:26:15 on domain   1:    2.01988 elapsed seconds
Timing for main: time 2019-11-26_19:26:30 on domain   1:    2.01753 elapsed seconds
Timing for main: time 2019-11-26_19:26:45 on domain   1:    2.02132 elapsed seconds
Timing for main: time 2019-11-26_19:27:00 on domain   1:    2.02075 elapsed seconds
Timing for main: time 2019-11-26_19:27:15 on domain   1:    2.02050 elapsed seconds
Timing for main: time 2019-11-26_19:27:30 on domain   1:    2.01886 elapsed seconds
Timing for main: time 2019-11-26_19:27:45 on domain   1:    2.02068 elapsed seconds
Timing for main: time 2019-11-26_19:28:00 on domain   1:    2.01779 elapsed seconds
Timing for main: time 2019-11-26_19:28:15 on domain   1:    2.01829 elapsed seconds
Timing for main: time 2019-11-26_19:28:30 on domain   1:    2.01571 elapsed seconds
Timing for main: time 2019-11-26_19:28:45 on domain   1:    2.01846 elapsed seconds
Timing for main: time 2019-11-26_19:29:00 on domain   1:    2.02058 elapsed seconds
Timing for main: time 2019-11-26_19:29:15 on domain   1:    2.02123 elapsed seconds
Timing for main: time 2019-11-26_19:29:30 on domain   1:    2.02350 elapsed seconds
Timing for main: time 2019-11-26_19:29:45 on domain   1:    2.01900 elapsed seconds
Timing for main: time 2019-11-26_19:30:00 on domain   1:    2.02042 elapsed seconds
Timing for main: time 2019-11-26_19:30:15 on domain   1:   16.15266 elapsed seconds
Timing for main: time 2019-11-26_19:30:30 on domain   1:    3.01195 elapsed seconds
Timing for main: time 2019-11-26_19:30:45 on domain   1:    2.52664 elapsed seconds
Timing for main: time 2019-11-26_19:31:00 on domain   1:    2.02898 elapsed seconds
Timing for main: time 2019-11-26_19:31:15 on domain   1:    2.02195 elapsed seconds
Timing for main: time 2019-11-26_19:31:30 on domain   1:    2.03281 elapsed seconds
Timing for main: time 2019-11-26_19:31:45 on domain   1:    2.02619 elapsed seconds
Timing for main: time 2019-11-26_19:32:00 on domain   1:    2.02853 elapsed seconds
Timing for main: time 2019-11-26_19:32:15 on domain   1:    2.02755 elapsed seconds
Timing for main: time 2019-11-26_19:32:30 on domain   1:    2.03292 elapsed seconds
Timing for main: time 2019-11-26_19:32:45 on domain   1:    2.02690 elapsed seconds
Timing for main: time 2019-11-26_19:33:00 on domain   1:    2.03156 elapsed seconds
Timing for main: time 2019-11-26_19:33:15 on domain   1:    2.02523 elapsed seconds
Timing for main: time 2019-11-26_19:33:30 on domain   1:    2.03119 elapsed seconds
Timing for main: time 2019-11-26_19:33:45 on domain   1:    2.02947 elapsed seconds
Timing for main: time 2019-11-26_19:34:00 on domain   1:    2.02807 elapsed seconds
Timing for main: time 2019-11-26_19:34:15 on domain   1:    2.02722 elapsed seconds
Timing for main: time 2019-11-26_19:34:30 on domain   1:    2.03613 elapsed seconds
Timing for main: time 2019-11-26_19:34:45 on domain   1:    2.02714 elapsed seconds
Timing for main: time 2019-11-26_19:35:00 on domain   1:    2.03264 elapsed seconds
Timing for main: time 2019-11-26_19:35:15 on domain   1:    2.03040 elapsed seconds
Timing for main: time 2019-11-26_19:35:30 on domain   1:    2.03443 elapsed seconds
Timing for main: time 2019-11-26_19:35:45 on domain   1:    2.03002 elapsed seconds
Timing for main: time 2019-11-26_19:36:00 on domain   1:    2.03434 elapsed seconds
Timing for main: time 2019-11-26_19:36:15 on domain   1:    2.03168 elapsed seconds
Timing for main: time 2019-11-26_19:36:30 on domain   1:    2.03665 elapsed seconds
Timing for main: time 2019-11-26_19:36:45 on domain   1:    2.03231 elapsed seconds
Timing for main: time 2019-11-26_19:37:00 on domain   1:    2.03647 elapsed seconds
Timing for main: time 2019-11-26_19:37:15 on domain   1:    2.03499 elapsed seconds
Timing for main: time 2019-11-26_19:37:30 on domain   1:    2.03768 elapsed seconds
Timing for main: time 2019-11-26_19:37:45 on domain   1:    2.03525 elapsed seconds
Timing for main: time 2019-11-26_19:38:00 on domain   1:    2.03829 elapsed seconds
Timing for main: time 2019-11-26_19:38:15 on domain   1:    2.03238 elapsed seconds
Timing for main: time 2019-11-26_19:38:30 on domain   1:    2.03967 elapsed seconds
Timing for main: time 2019-11-26_19:38:45 on domain   1:    2.03356 elapsed seconds
Timing for main: time 2019-11-26_19:39:00 on domain   1:    2.04080 elapsed seconds
Timing for main: time 2019-11-26_19:39:15 on domain   1:    2.03393 elapsed seconds
Timing for main: time 2019-11-26_19:39:30 on domain   1:    2.03937 elapsed seconds
Timing for main: time 2019-11-26_19:39:45 on domain   1:    2.03661 elapsed seconds
Timing for main: time 2019-11-26_19:40:00 on domain   1:    2.03835 elapsed seconds
Timing for main: time 2019-11-26_19:40:15 on domain   1:   16.25149 elapsed seconds
Timing for main: time 2019-11-26_19:40:30 on domain   1:    2.03895 elapsed seconds
Timing for main: time 2019-11-26_19:40:45 on domain   1:    2.03829 elapsed seconds
Timing for main: time 2019-11-26_19:41:00 on domain   1:    2.03935 elapsed seconds
Timing for main: time 2019-11-26_19:41:15 on domain   1:    2.03707 elapsed seconds
Timing for main: time 2019-11-26_19:41:30 on domain   1:    2.03541 elapsed seconds
Timing for main: time 2019-11-26_19:41:45 on domain   1:    2.03883 elapsed seconds
Timing for main: time 2019-11-26_19:42:00 on domain   1:    2.03834 elapsed seconds
Timing for main: time 2019-11-26_19:42:15 on domain   1:    2.03744 elapsed seconds
Timing for main: time 2019-11-26_19:42:30 on domain   1:    2.04045 elapsed seconds
Timing for main: time 2019-11-26_19:42:45 on domain   1:    2.03887 elapsed seconds
Timing for main: time 2019-11-26_19:43:00 on domain   1:    2.03676 elapsed seconds
Timing for main: time 2019-11-26_19:43:15 on domain   1:    2.03775 elapsed seconds
Timing for main: time 2019-11-26_19:43:30 on domain   1:    2.04173 elapsed seconds
Timing for main: time 2019-11-26_19:43:45 on domain   1:    2.07557 elapsed seconds
Timing for main: time 2019-11-26_19:44:00 on domain   1:    3.43248 elapsed seconds
Timing for main: time 2019-11-26_19:44:15 on domain   1:    2.04128 elapsed seconds
Timing for main: time 2019-11-26_19:44:30 on domain   1:    2.04070 elapsed seconds
Timing for main: time 2019-11-26_19:44:45 on domain   1:    2.04184 elapsed seconds
Timing for main: time 2019-11-26_19:45:00 on domain   1:    2.04020 elapsed seconds
Timing for main: time 2019-11-26_19:45:15 on domain   1:    2.04178 elapsed seconds
Timing for main: time 2019-11-26_19:45:30 on domain   1:    2.03908 elapsed seconds
Timing for main: time 2019-11-26_19:45:45 on domain   1:    2.03933 elapsed seconds
Timing for main: time 2019-11-26_19:46:00 on domain   1:    2.04163 elapsed seconds
Timing for main: time 2019-11-26_19:46:15 on domain   1:    2.04242 elapsed seconds
Timing for main: time 2019-11-26_19:46:30 on domain   1:    2.04248 elapsed seconds
Timing for main: time 2019-11-26_19:46:45 on domain   1:    2.04154 elapsed seconds
Timing for main: time 2019-11-26_19:47:00 on domain   1:    2.04402 elapsed seconds
Timing for main: time 2019-11-26_19:47:15 on domain   1:    2.04319 elapsed seconds
Timing for main: time 2019-11-26_19:47:30 on domain   1:    2.04176 elapsed seconds
Timing for main: time 2019-11-26_19:47:45 on domain   1:    2.04471 elapsed seconds
Timing for main: time 2019-11-26_19:48:00 on domain   1:    2.04635 elapsed seconds
Timing for main: time 2019-11-26_19:48:15 on domain   1:    2.04393 elapsed seconds
Timing for main: time 2019-11-26_19:48:30 on domain   1:    2.04487 elapsed seconds
Timing for main: time 2019-11-26_19:48:45 on domain   1:    2.04420 elapsed seconds
Timing for main: time 2019-11-26_19:49:00 on domain   1:    2.04032 elapsed seconds
Timing for main: time 2019-11-26_19:49:15 on domain   1:    2.04283 elapsed seconds
Timing for main: time 2019-11-26_19:49:30 on domain   1:    2.04266 elapsed seconds
Timing for main: time 2019-11-26_19:49:45 on domain   1:    2.04253 elapsed seconds
Timing for main: time 2019-11-26_19:50:00 on domain   1:    2.04641 elapsed seconds
Timing for main: time 2019-11-26_19:50:15 on domain   1:   16.22781 elapsed seconds
Timing for main: time 2019-11-26_19:50:30 on domain   1:    2.04187 elapsed seconds
Timing for main: time 2019-11-26_19:50:45 on domain   1:    2.04412 elapsed seconds
Timing for main: time 2019-11-26_19:51:00 on domain   1:    2.04657 elapsed seconds
Timing for main: time 2019-11-26_19:51:15 on domain   1:    2.04173 elapsed seconds
Timing for main: time 2019-11-26_19:51:30 on domain   1:    2.04769 elapsed seconds
Timing for main: time 2019-11-26_19:51:45 on domain   1:    2.04382 elapsed seconds
Timing for main: time 2019-11-26_19:52:00 on domain   1:    2.04523 elapsed seconds
Timing for main: time 2019-11-26_19:52:15 on domain   1:    2.05239 elapsed seconds
Timing for main: time 2019-11-26_19:52:30 on domain   1:    2.05075 elapsed seconds
Timing for main: time 2019-11-26_19:52:45 on domain   1:    2.04877 elapsed seconds
Timing for main: time 2019-11-26_19:53:00 on domain   1:    2.05162 elapsed seconds
Timing for main: time 2019-11-26_19:53:15 on domain   1:    2.05271 elapsed seconds
Timing for main: time 2019-11-26_19:53:30 on domain   1:    2.04879 elapsed seconds
Timing for main: time 2019-11-26_19:53:45 on domain   1:    2.05149 elapsed seconds
Timing for main: time 2019-11-26_19:54:00 on domain   1:    2.04760 elapsed seconds
Timing for main: time 2019-11-26_19:54:15 on domain   1:    2.04773 elapsed seconds
Timing for main: time 2019-11-26_19:54:30 on domain   1:    2.05203 elapsed seconds
Timing for main: time 2019-11-26_19:54:45 on domain   1:    2.05330 elapsed seconds
Timing for main: time 2019-11-26_19:55:00 on domain   1:    2.05160 elapsed seconds
Timing for main: time 2019-11-26_19:55:15 on domain   1:    2.05478 elapsed seconds
Timing for main: time 2019-11-26_19:55:30 on domain   1:    2.04920 elapsed seconds
Timing for main: time 2019-11-26_19:55:45 on domain   1:    2.04969 elapsed seconds
Timing for main: time 2019-11-26_19:56:00 on domain   1:    2.05223 elapsed seconds
Timing for main: time 2019-11-26_19:56:15 on domain   1:    2.05171 elapsed seconds
Timing for main: time 2019-11-26_19:56:30 on domain   1:    2.04771 elapsed seconds
Timing for main: time 2019-11-26_19:56:45 on domain   1:    2.05094 elapsed seconds
Timing for main: time 2019-11-26_19:57:00 on domain   1:    2.26976 elapsed seconds
Timing for main: time 2019-11-26_19:57:15 on domain   1:    2.98610 elapsed seconds
Timing for main: time 2019-11-26_19:57:30 on domain   1:    2.44599 elapsed seconds
Timing for main: time 2019-11-26_19:57:45 on domain   1:    2.06683 elapsed seconds
Timing for main: time 2019-11-26_19:58:00 on domain   1:    2.05569 elapsed seconds
Timing for main: time 2019-11-26_19:58:15 on domain   1:    2.05910 elapsed seconds
Timing for main: time 2019-11-26_19:58:30 on domain   1:    2.05764 elapsed seconds
Timing for main: time 2019-11-26_19:58:45 on domain   1:    2.05943 elapsed seconds
Timing for main: time 2019-11-26_19:59:00 on domain   1:    2.05491 elapsed seconds
Timing for main: time 2019-11-26_19:59:15 on domain   1:    2.05279 elapsed seconds
Timing for main: time 2019-11-26_19:59:30 on domain   1:    2.05380 elapsed seconds
Timing for main: time 2019-11-26_19:59:45 on domain   1:    2.05521 elapsed seconds
Timing for main: time 2019-11-26_20:00:00 on domain   1:    2.05183 elapsed seconds
 mediation_integrate.G        1249 DATASET=HISTORY
 mediation_integrate.G        1250  grid%id            1  grid%oid            2
Timing for Writing wrfout_d01_2019-11-26_20:00:00 for domain        1:    4.89297 elapsed seconds
Timing for main: time 2019-11-26_20:00:15 on domain   1:   21.16847 elapsed seconds
Timing for main: time 2019-11-26_20:00:30 on domain   1:    2.05706 elapsed seconds
Timing for main: time 2019-11-26_20:00:45 on domain   1:    2.05218 elapsed seconds
Timing for main: time 2019-11-26_20:01:00 on domain   1:    2.05373 elapsed seconds
Timing for main: time 2019-11-26_20:01:15 on domain   1:    2.05580 elapsed seconds
Timing for main: time 2019-11-26_20:01:30 on domain   1:    2.05303 elapsed seconds
Timing for main: time 2019-11-26_20:01:45 on domain   1:    2.05138 elapsed seconds
Timing for main: time 2019-11-26_20:02:00 on domain   1:    2.05419 elapsed seconds
Timing for main: time 2019-11-26_20:02:15 on domain   1:    2.05650 elapsed seconds
Timing for main: time 2019-11-26_20:02:30 on domain   1:    2.05561 elapsed seconds
Timing for main: time 2019-11-26_20:02:45 on domain   1:    2.05892 elapsed seconds
Timing for main: time 2019-11-26_20:03:00 on domain   1:    2.05402 elapsed seconds
Timing for main: time 2019-11-26_20:03:15 on domain   1:    2.06013 elapsed seconds
Timing for main: time 2019-11-26_20:03:30 on domain   1:    2.05682 elapsed seconds
Timing for main: time 2019-11-26_20:03:45 on domain   1:    2.06175 elapsed seconds
Timing for main: time 2019-11-26_20:04:00 on domain   1:    2.05580 elapsed seconds
Timing for main: time 2019-11-26_20:04:15 on domain   1:    2.06440 elapsed seconds
Timing for main: time 2019-11-26_20:04:30 on domain   1:    2.05906 elapsed seconds
Timing for main: time 2019-11-26_20:04:45 on domain   1:    2.05504 elapsed seconds
Timing for main: time 2019-11-26_20:05:00 on domain   1:    2.05470 elapsed seconds
Timing for main: time 2019-11-26_20:05:15 on domain   1:    2.06012 elapsed seconds
Timing for main: time 2019-11-26_20:05:30 on domain   1:    2.05788 elapsed seconds
Timing for main: time 2019-11-26_20:05:45 on domain   1:    2.05997 elapsed seconds
Timing for main: time 2019-11-26_20:06:00 on domain   1:    2.05594 elapsed seconds
Timing for main: time 2019-11-26_20:06:15 on domain   1:    2.06404 elapsed seconds
Timing for main: time 2019-11-26_20:06:30 on domain   1:    2.05607 elapsed seconds
Timing for main: time 2019-11-26_20:06:45 on domain   1:    2.06011 elapsed seconds
Timing for main: time 2019-11-26_20:07:00 on domain   1:    2.06078 elapsed seconds
Timing for main: time 2019-11-26_20:07:15 on domain   1:    2.05641 elapsed seconds
Timing for main: time 2019-11-26_20:07:30 on domain   1:    2.05982 elapsed seconds
Timing for main: time 2019-11-26_20:07:45 on domain   1:    2.06280 elapsed seconds
Timing for main: time 2019-11-26_20:08:00 on domain   1:    2.05532 elapsed seconds
Timing for main: time 2019-11-26_20:08:15 on domain   1:    2.06067 elapsed seconds
Timing for main: time 2019-11-26_20:08:30 on domain   1:    2.05721 elapsed seconds
Timing for main: time 2019-11-26_20:08:45 on domain   1:    2.06389 elapsed seconds
Timing for main: time 2019-11-26_20:09:00 on domain   1:    2.05897 elapsed seconds
Timing for main: time 2019-11-26_20:09:15 on domain   1:    2.06428 elapsed seconds
Timing for main: time 2019-11-26_20:09:30 on domain   1:    2.12554 elapsed seconds
Timing for main: time 2019-11-26_20:09:45 on domain   1:    2.15138 elapsed seconds
Timing for main: time 2019-11-26_20:10:00 on domain   1:    3.38380 elapsed seconds
Timing for main: time 2019-11-26_20:10:15 on domain   1:   16.33545 elapsed seconds
Timing for main: time 2019-11-26_20:10:30 on domain   1:    2.06859 elapsed seconds
Timing for main: time 2019-11-26_20:10:45 on domain   1:    2.06893 elapsed seconds
Timing for main: time 2019-11-26_20:11:00 on domain   1:    2.07040 elapsed seconds
Timing for main: time 2019-11-26_20:11:15 on domain   1:    2.06583 elapsed seconds
Timing for main: time 2019-11-26_20:11:30 on domain   1:    2.07259 elapsed seconds
Timing for main: time 2019-11-26_20:11:45 on domain   1:    2.06789 elapsed seconds
Timing for main: time 2019-11-26_20:12:00 on domain   1:    2.06875 elapsed seconds
Timing for main: time 2019-11-26_20:12:15 on domain   1:    2.06804 elapsed seconds
Timing for main: time 2019-11-26_20:12:30 on domain   1:    2.06867 elapsed seconds
Timing for main: time 2019-11-26_20:12:45 on domain   1:    2.07267 elapsed seconds
Timing for main: time 2019-11-26_20:13:00 on domain   1:    2.06838 elapsed seconds
Timing for main: time 2019-11-26_20:13:15 on domain   1:    2.07260 elapsed seconds
Timing for main: time 2019-11-26_20:13:30 on domain   1:    2.07449 elapsed seconds
Timing for main: time 2019-11-26_20:13:45 on domain   1:    2.06856 elapsed seconds
Timing for main: time 2019-11-26_20:14:00 on domain   1:    2.07192 elapsed seconds
Timing for main: time 2019-11-26_20:14:15 on domain   1:    2.06789 elapsed seconds
Timing for main: time 2019-11-26_20:14:30 on domain   1:    2.07191 elapsed seconds
Timing for main: time 2019-11-26_20:14:45 on domain   1:    2.07057 elapsed seconds
Timing for main: time 2019-11-26_20:15:00 on domain   1:    2.06478 elapsed seconds
Timing for main: time 2019-11-26_20:15:15 on domain   1:    2.06950 elapsed seconds
Timing for main: time 2019-11-26_20:15:30 on domain   1:    2.06214 elapsed seconds
Timing for main: time 2019-11-26_20:15:45 on domain   1:    2.07168 elapsed seconds
Timing for main: time 2019-11-26_20:16:00 on domain   1:    2.06695 elapsed seconds
Timing for main: time 2019-11-26_20:16:15 on domain   1:    2.06735 elapsed seconds
Timing for main: time 2019-11-26_20:16:30 on domain   1:    2.06818 elapsed seconds
Timing for main: time 2019-11-26_20:16:45 on domain   1:    2.06364 elapsed seconds
Timing for main: time 2019-11-26_20:17:00 on domain   1:    2.07259 elapsed seconds
Timing for main: time 2019-11-26_20:17:15 on domain   1:    2.06718 elapsed seconds
Timing for main: time 2019-11-26_20:17:30 on domain   1:    2.06875 elapsed seconds
Timing for main: time 2019-11-26_20:17:45 on domain   1:    2.06451 elapsed seconds
Timing for main: time 2019-11-26_20:18:00 on domain   1:    2.06621 elapsed seconds
Timing for main: time 2019-11-26_20:18:15 on domain   1:    2.06951 elapsed seconds
Timing for main: time 2019-11-26_20:18:30 on domain   1:    2.06457 elapsed seconds
Timing for main: time 2019-11-26_20:18:45 on domain   1:    2.06960 elapsed seconds
Timing for main: time 2019-11-26_20:19:00 on domain   1:    2.06837 elapsed seconds
Timing for main: time 2019-11-26_20:19:15 on domain   1:    2.06808 elapsed seconds
Timing for main: time 2019-11-26_20:19:30 on domain   1:    2.07355 elapsed seconds
Timing for main: time 2019-11-26_20:19:45 on domain   1:    2.06194 elapsed seconds
Timing for main: time 2019-11-26_20:20:00 on domain   1:    2.06674 elapsed seconds
Timing for main: time 2019-11-26_20:20:15 on domain   1:   16.32382 elapsed seconds
Timing for main: time 2019-11-26_20:20:30 on domain   1:    2.30706 elapsed seconds
Timing for main: time 2019-11-26_20:20:45 on domain   1:    2.06422 elapsed seconds
Timing for main: time 2019-11-26_20:21:00 on domain   1:    2.06917 elapsed seconds
Timing for main: time 2019-11-26_20:21:15 on domain   1:    2.09398 elapsed seconds
Timing for main: time 2019-11-26_20:21:30 on domain   1:    3.37910 elapsed seconds
Timing for main: time 2019-11-26_20:21:45 on domain   1:    2.08309 elapsed seconds
Timing for main: time 2019-11-26_20:22:00 on domain   1:    2.07085 elapsed seconds
Timing for main: time 2019-11-26_20:22:15 on domain   1:    2.06539 elapsed seconds
Timing for main: time 2019-11-26_20:22:30 on domain   1:    2.06849 elapsed seconds
Timing for main: time 2019-11-26_20:22:45 on domain   1:    2.06430 elapsed seconds
Timing for main: time 2019-11-26_20:23:00 on domain   1:    2.06573 elapsed seconds
Timing for main: time 2019-11-26_20:23:15 on domain   1:    2.06604 elapsed seconds
Timing for main: time 2019-11-26_20:23:30 on domain   1:    2.06635 elapsed seconds
Timing for main: time 2019-11-26_20:23:45 on domain   1:    2.06612 elapsed seconds
Timing for main: time 2019-11-26_20:24:00 on domain   1:    2.06653 elapsed seconds
Timing for main: time 2019-11-26_20:24:15 on domain   1:    2.06924 elapsed seconds
Timing for main: time 2019-11-26_20:24:30 on domain   1:    2.06639 elapsed seconds
Timing for main: time 2019-11-26_20:24:45 on domain   1:    2.06730 elapsed seconds
Timing for main: time 2019-11-26_20:25:00 on domain   1:    2.06546 elapsed seconds
Timing for main: time 2019-11-26_20:25:15 on domain   1:    2.06344 elapsed seconds
Timing for main: time 2019-11-26_20:25:30 on domain   1:    2.06169 elapsed seconds
Timing for main: time 2019-11-26_20:25:45 on domain   1:    2.06468 elapsed seconds
Timing for main: time 2019-11-26_20:26:00 on domain   1:    2.06604 elapsed seconds
Timing for main: time 2019-11-26_20:26:15 on domain   1:    2.06205 elapsed seconds
Timing for main: time 2019-11-26_20:26:30 on domain   1:    2.06528 elapsed seconds
Timing for main: time 2019-11-26_20:26:45 on domain   1:    2.06624 elapsed seconds
Timing for main: time 2019-11-26_20:27:00 on domain   1:    2.06592 elapsed seconds
Timing for main: time 2019-11-26_20:27:15 on domain   1:    2.06655 elapsed seconds
Timing for main: time 2019-11-26_20:27:30 on domain   1:    2.06575 elapsed seconds
Timing for main: time 2019-11-26_20:27:45 on domain   1:    2.06340 elapsed seconds
Timing for main: time 2019-11-26_20:28:00 on domain   1:    2.06541 elapsed seconds
Timing for main: time 2019-11-26_20:28:15 on domain   1:    2.06587 elapsed seconds
Timing for main: time 2019-11-26_20:28:30 on domain   1:    2.06333 elapsed seconds
Timing for main: time 2019-11-26_20:28:45 on domain   1:    2.06549 elapsed seconds
Timing for main: time 2019-11-26_20:29:00 on domain   1:    2.06628 elapsed seconds
Timing for main: time 2019-11-26_20:29:15 on domain   1:    2.06327 elapsed seconds
Timing for main: time 2019-11-26_20:29:30 on domain   1:    2.06628 elapsed seconds
Timing for main: time 2019-11-26_20:29:45 on domain   1:    2.06342 elapsed seconds
Timing for main: time 2019-11-26_20:30:00 on domain   1:    2.06457 elapsed seconds
Timing for main: time 2019-11-26_20:30:15 on domain   1:   16.37557 elapsed seconds
Timing for main: time 2019-11-26_20:30:30 on domain   1:    2.06412 elapsed seconds
Timing for main: time 2019-11-26_20:30:45 on domain   1:    2.06547 elapsed seconds
Timing for main: time 2019-11-26_20:31:00 on domain   1:    2.06417 elapsed seconds
Timing for main: time 2019-11-26_20:31:15 on domain   1:    2.06283 elapsed seconds
Timing for main: time 2019-11-26_20:31:30 on domain   1:    2.06515 elapsed seconds
Timing for main: time 2019-11-26_20:31:45 on domain   1:    2.06292 elapsed seconds
Timing for main: time 2019-11-26_20:32:00 on domain   1:    2.06291 elapsed seconds
Timing for main: time 2019-11-26_20:32:15 on domain   1:    2.06237 elapsed seconds
Timing for main: time 2019-11-26_20:32:30 on domain   1:    2.06269 elapsed seconds
Timing for main: time 2019-11-26_20:32:45 on domain   1:    2.06558 elapsed seconds
Timing for main: time 2019-11-26_20:33:00 on domain   1:    2.06653 elapsed seconds
Timing for main: time 2019-11-26_20:33:15 on domain   1:    2.31546 elapsed seconds
Timing for main: time 2019-11-26_20:33:30 on domain   1:    2.06008 elapsed seconds
Timing for main: time 2019-11-26_20:33:45 on domain   1:    2.06643 elapsed seconds
Timing for main: time 2019-11-26_20:34:00 on domain   1:    2.06368 elapsed seconds
Timing for main: time 2019-11-26_20:34:15 on domain   1:    2.06465 elapsed seconds
Timing for main: time 2019-11-26_20:34:30 on domain   1:    2.36793 elapsed seconds
Timing for main: time 2019-11-26_20:34:45 on domain   1:    3.19400 elapsed seconds
Timing for main: time 2019-11-26_20:35:00 on domain   1:    2.06682 elapsed seconds
Timing for main: time 2019-11-26_20:35:15 on domain   1:    2.06588 elapsed seconds
Timing for main: time 2019-11-26_20:35:30 on domain   1:    2.06100 elapsed seconds
Timing for main: time 2019-11-26_20:35:45 on domain   1:    2.06225 elapsed seconds
Timing for main: time 2019-11-26_20:36:00 on domain   1:    2.06044 elapsed seconds
Timing for main: time 2019-11-26_20:36:15 on domain   1:    2.06264 elapsed seconds
Timing for main: time 2019-11-26_20:36:30 on domain   1:    2.05961 elapsed seconds
Timing for main: time 2019-11-26_20:36:45 on domain   1:    2.06519 elapsed seconds
Timing for main: time 2019-11-26_20:37:00 on domain   1:    2.06126 elapsed seconds
Timing for main: time 2019-11-26_20:37:15 on domain   1:    2.06189 elapsed seconds
Timing for main: time 2019-11-26_20:37:30 on domain   1:    2.06004 elapsed seconds
Timing for main: time 2019-11-26_20:37:45 on domain   1:    2.06344 elapsed seconds
Timing for main: time 2019-11-26_20:38:00 on domain   1:    2.05987 elapsed seconds
Timing for main: time 2019-11-26_20:38:15 on domain   1:    2.06461 elapsed seconds
Timing for main: time 2019-11-26_20:38:30 on domain   1:    2.06109 elapsed seconds
Timing for main: time 2019-11-26_20:38:45 on domain   1:    2.06658 elapsed seconds
Timing for main: time 2019-11-26_20:39:00 on domain   1:    2.05960 elapsed seconds
Timing for main: time 2019-11-26_20:39:15 on domain   1:    2.06476 elapsed seconds
Timing for main: time 2019-11-26_20:39:30 on domain   1:    2.06045 elapsed seconds
Timing for main: time 2019-11-26_20:39:45 on domain   1:    2.06139 elapsed seconds
Timing for main: time 2019-11-26_20:40:00 on domain   1:    2.05816 elapsed seconds
Timing for main: time 2019-11-26_20:40:15 on domain   1:   16.36876 elapsed seconds
Timing for main: time 2019-11-26_20:40:30 on domain   1:    2.05814 elapsed seconds
Timing for main: time 2019-11-26_20:40:45 on domain   1:    2.06069 elapsed seconds
Timing for main: time 2019-11-26_20:41:00 on domain   1:    2.05609 elapsed seconds
Timing for main: time 2019-11-26_20:41:15 on domain   1:    2.05913 elapsed seconds
Timing for main: time 2019-11-26_20:41:30 on domain   1:    2.05783 elapsed seconds
Timing for main: time 2019-11-26_20:41:45 on domain   1:    2.06034 elapsed seconds
Timing for main: time 2019-11-26_20:42:00 on domain   1:    2.05923 elapsed seconds
Timing for main: time 2019-11-26_20:42:15 on domain   1:    2.05902 elapsed seconds
Timing for main: time 2019-11-26_20:42:30 on domain   1:    2.05727 elapsed seconds
Timing for main: time 2019-11-26_20:42:45 on domain   1:    2.06020 elapsed seconds
Timing for main: time 2019-11-26_20:43:00 on domain   1:    2.06232 elapsed seconds
Timing for main: time 2019-11-26_20:43:15 on domain   1:    2.05495 elapsed seconds
Timing for main: time 2019-11-26_20:43:30 on domain   1:    2.05925 elapsed seconds
Timing for main: time 2019-11-26_20:43:45 on domain   1:    2.05727 elapsed seconds
Timing for main: time 2019-11-26_20:44:00 on domain   1:    2.06007 elapsed seconds
Timing for main: time 2019-11-26_20:44:15 on domain   1:    2.06374 elapsed seconds
Timing for main: time 2019-11-26_20:44:30 on domain   1:    2.05700 elapsed seconds
Timing for main: time 2019-11-26_20:44:45 on domain   1:    2.06126 elapsed seconds
Timing for main: time 2019-11-26_20:45:00 on domain   1:    2.06133 elapsed seconds
Timing for main: time 2019-11-26_20:45:15 on domain   1:    2.06092 elapsed seconds
Timing for main: time 2019-11-26_20:45:30 on domain   1:    2.06247 elapsed seconds
Timing for main: time 2019-11-26_20:45:45 on domain   1:    2.05863 elapsed seconds
Timing for main: time 2019-11-26_20:46:00 on domain   1:    2.27775 elapsed seconds
Timing for main: time 2019-11-26_20:46:15 on domain   1:    2.05810 elapsed seconds
Timing for main: time 2019-11-26_20:46:30 on domain   1:    2.05473 elapsed seconds
Timing for main: time 2019-11-26_20:46:45 on domain   1:    2.05854 elapsed seconds
Timing for main: time 2019-11-26_20:47:00 on domain   1:    2.05933 elapsed seconds
Timing for main: time 2019-11-26_20:47:15 on domain   1:    2.05957 elapsed seconds
Timing for main: time 2019-11-26_20:47:30 on domain   1:    2.05917 elapsed seconds
Timing for main: time 2019-11-26_20:47:45 on domain   1:    2.62883 elapsed seconds
Timing for main: time 2019-11-26_20:48:00 on domain   1:    2.86699 elapsed seconds
Timing for main: time 2019-11-26_20:48:15 on domain   1:    2.06116 elapsed seconds
Timing for main: time 2019-11-26_20:48:30 on domain   1:    2.05951 elapsed seconds
Timing for main: time 2019-11-26_20:48:45 on domain   1:    2.05700 elapsed seconds
Timing for main: time 2019-11-26_20:49:00 on domain   1:    2.05845 elapsed seconds
Timing for main: time 2019-11-26_20:49:15 on domain   1:    2.06158 elapsed seconds
Timing for main: time 2019-11-26_20:49:30 on domain   1:    2.05625 elapsed seconds
Timing for main: time 2019-11-26_20:49:45 on domain   1:    2.05948 elapsed seconds
Timing for main: time 2019-11-26_20:50:00 on domain   1:    2.06032 elapsed seconds
Timing for main: time 2019-11-26_20:50:15 on domain   1:   16.35172 elapsed seconds
Timing for main: time 2019-11-26_20:50:30 on domain   1:    2.06595 elapsed seconds
Timing for main: time 2019-11-26_20:50:45 on domain   1:    2.06246 elapsed seconds
Timing for main: time 2019-11-26_20:51:00 on domain   1:    2.06537 elapsed seconds
Timing for main: time 2019-11-26_20:51:15 on domain   1:    2.06558 elapsed seconds
Timing for main: time 2019-11-26_20:51:30 on domain   1:    2.06657 elapsed seconds
Timing for main: time 2019-11-26_20:51:45 on domain   1:    2.06418 elapsed seconds
Timing for main: time 2019-11-26_20:52:00 on domain   1:    2.06333 elapsed seconds
Timing for main: time 2019-11-26_20:52:15 on domain   1:    2.06239 elapsed seconds
Timing for main: time 2019-11-26_20:52:30 on domain   1:    2.06008 elapsed seconds
Timing for main: time 2019-11-26_20:52:45 on domain   1:    2.06459 elapsed seconds
Timing for main: time 2019-11-26_20:53:00 on domain   1:    2.06275 elapsed seconds
Timing for main: time 2019-11-26_20:53:15 on domain   1:    2.06375 elapsed seconds
Timing for main: time 2019-11-26_20:53:30 on domain   1:    2.06586 elapsed seconds
Timing for main: time 2019-11-26_20:53:45 on domain   1:    2.06693 elapsed seconds
Timing for main: time 2019-11-26_20:54:00 on domain   1:    2.06562 elapsed seconds
Timing for main: time 2019-11-26_20:54:15 on domain   1:    2.06262 elapsed seconds
Timing for main: time 2019-11-26_20:54:30 on domain   1:    2.06627 elapsed seconds
Timing for main: time 2019-11-26_20:54:45 on domain   1:    2.06668 elapsed seconds
Timing for main: time 2019-11-26_20:55:00 on domain   1:    2.06330 elapsed seconds
Timing for main: time 2019-11-26_20:55:15 on domain   1:    2.06549 elapsed seconds
Timing for main: time 2019-11-26_20:55:30 on domain   1:    2.06379 elapsed seconds
Timing for main: time 2019-11-26_20:55:45 on domain   1:    2.06510 elapsed seconds
Timing for main: time 2019-11-26_20:56:00 on domain   1:    2.06494 elapsed seconds
Timing for main: time 2019-11-26_20:56:15 on domain   1:    2.06242 elapsed seconds
Timing for main: time 2019-11-26_20:56:30 on domain   1:    2.06438 elapsed seconds
Timing for main: time 2019-11-26_20:56:45 on domain   1:    2.06713 elapsed seconds
Timing for main: time 2019-11-26_20:57:00 on domain   1:    2.06600 elapsed seconds
Timing for main: time 2019-11-26_20:57:15 on domain   1:    2.06452 elapsed seconds
Timing for main: time 2019-11-26_20:57:30 on domain   1:    2.06418 elapsed seconds
Timing for main: time 2019-11-26_20:57:45 on domain   1:    2.06900 elapsed seconds
Timing for main: time 2019-11-26_20:58:00 on domain   1:    2.06528 elapsed seconds
Timing for main: time 2019-11-26_20:58:15 on domain   1:    2.06436 elapsed seconds
Timing for main: time 2019-11-26_20:58:30 on domain   1:    2.06280 elapsed seconds
Timing for main: time 2019-11-26_20:58:45 on domain   1:    2.27486 elapsed seconds
Timing for main: time 2019-11-26_20:59:00 on domain   1:    2.06798 elapsed seconds
Timing for main: time 2019-11-26_20:59:15 on domain   1:    2.06571 elapsed seconds
Timing for main: time 2019-11-26_20:59:30 on domain   1:    2.06386 elapsed seconds
Timing for main: time 2019-11-26_20:59:45 on domain   1:    2.06893 elapsed seconds
Timing for main: time 2019-11-26_21:00:00 on domain   1:    2.06455 elapsed seconds
 mediation_integrate.G        1249 DATASET=HISTORY
 mediation_integrate.G        1250  grid%id            1  grid%oid            2
Timing for Writing wrfout_d01_2019-11-26_21:00:00 for domain        1:    4.84415 elapsed seconds
 Input data is acceptable to use: wrfbdy_d01
Timing for processing lateral boundary for domain        1:    0.48116 elapsed seconds
Timing for main: time 2019-11-26_21:00:15 on domain   1:   22.16424 elapsed seconds
Timing for main: time 2019-11-26_21:00:30 on domain   1:    2.06222 elapsed seconds
Timing for main: time 2019-11-26_21:00:45 on domain   1:    2.06250 elapsed seconds
Timing for main: time 2019-11-26_21:01:00 on domain   1:    2.06155 elapsed seconds
Timing for main: time 2019-11-26_21:01:15 on domain   1:    2.06178 elapsed seconds
Timing for main: time 2019-11-26_21:01:30 on domain   1:    2.06202 elapsed seconds
Timing for main: time 2019-11-26_21:01:45 on domain   1:    2.06384 elapsed seconds
Timing for main: time 2019-11-26_21:02:00 on domain   1:    2.06549 elapsed seconds
Timing for main: time 2019-11-26_21:02:15 on domain   1:    2.06380 elapsed seconds
Timing for main: time 2019-11-26_21:02:30 on domain   1:    2.06502 elapsed seconds
Timing for main: time 2019-11-26_21:02:45 on domain   1:    2.06220 elapsed seconds
Timing for main: time 2019-11-26_21:03:00 on domain   1:    2.06144 elapsed seconds
Timing for main: time 2019-11-26_21:03:15 on domain   1:    2.06400 elapsed seconds
Timing for main: time 2019-11-26_21:03:30 on domain   1:    2.06374 elapsed seconds
Timing for main: time 2019-11-26_21:03:45 on domain   1:    2.06164 elapsed seconds
Timing for main: time 2019-11-26_21:04:00 on domain   1:    2.06423 elapsed seconds
Timing for main: time 2019-11-26_21:04:15 on domain   1:    2.06337 elapsed seconds
Timing for main: time 2019-11-26_21:04:30 on domain   1:    2.06902 elapsed seconds
Timing for main: time 2019-11-26_21:04:45 on domain   1:    2.06148 elapsed seconds
Timing for main: time 2019-11-26_21:05:00 on domain   1:    2.06166 elapsed seconds
Timing for main: time 2019-11-26_21:05:15 on domain   1:    2.06531 elapsed seconds
Timing for main: time 2019-11-26_21:05:30 on domain   1:    2.06514 elapsed seconds
Timing for main: time 2019-11-26_21:05:45 on domain   1:    2.06394 elapsed seconds
Timing for main: time 2019-11-26_21:06:00 on domain   1:    2.06180 elapsed seconds
Timing for main: time 2019-11-26_21:06:15 on domain   1:    2.06500 elapsed seconds
Timing for main: time 2019-11-26_21:06:30 on domain   1:    2.06387 elapsed seconds
Timing for main: time 2019-11-26_21:06:45 on domain   1:    2.06280 elapsed seconds
Timing for main: time 2019-11-26_21:07:00 on domain   1:    2.06493 elapsed seconds
Timing for main: time 2019-11-26_21:07:15 on domain   1:    2.06320 elapsed seconds
Timing for main: time 2019-11-26_21:07:30 on domain   1:    2.06238 elapsed seconds
Timing for main: time 2019-11-26_21:07:45 on domain   1:    2.06433 elapsed seconds
Timing for main: time 2019-11-26_21:08:00 on domain   1:    2.06223 elapsed seconds
Timing for main: time 2019-11-26_21:08:15 on domain   1:    2.06557 elapsed seconds
Timing for main: time 2019-11-26_21:08:30 on domain   1:    2.06668 elapsed seconds
Timing for main: time 2019-11-26_21:08:45 on domain   1:    2.06609 elapsed seconds
Timing for main: time 2019-11-26_21:09:00 on domain   1:    2.06283 elapsed seconds
Timing for main: time 2019-11-26_21:09:15 on domain   1:    2.06481 elapsed seconds
Timing for main: time 2019-11-26_21:09:30 on domain   1:    2.06315 elapsed seconds
Timing for main: time 2019-11-26_21:09:45 on domain   1:    2.06603 elapsed seconds
Timing for main: time 2019-11-26_21:10:00 on domain   1:    2.06032 elapsed seconds
Timing for main: time 2019-11-26_21:10:15 on domain   1:   16.35144 elapsed seconds
Timing for main: time 2019-11-26_21:10:30 on domain   1:    2.05855 elapsed seconds
Timing for main: time 2019-11-26_21:10:45 on domain   1:    2.05951 elapsed seconds
Timing for main: time 2019-11-26_21:11:00 on domain   1:    2.06060 elapsed seconds
Timing for main: time 2019-11-26_21:11:15 on domain   1:    2.05996 elapsed seconds
Timing for main: time 2019-11-26_21:11:30 on domain   1:    2.06307 elapsed seconds
Timing for main: time 2019-11-26_21:11:45 on domain   1:    2.85109 elapsed seconds
Timing for main: time 2019-11-26_21:12:00 on domain   1:    2.53708 elapsed seconds
Timing for main: time 2019-11-26_21:12:15 on domain   1:    2.06663 elapsed seconds
Timing for main: time 2019-11-26_21:12:30 on domain   1:    2.06207 elapsed seconds
Timing for main: time 2019-11-26_21:12:45 on domain   1:    2.06126 elapsed seconds
Timing for main: time 2019-11-26_21:13:00 on domain   1:    2.06279 elapsed seconds
Timing for main: time 2019-11-26_21:13:15 on domain   1:    2.06040 elapsed seconds
Timing for main: time 2019-11-26_21:13:30 on domain   1:    2.05944 elapsed seconds
Timing for main: time 2019-11-26_21:13:45 on domain   1:    2.06473 elapsed seconds
Timing for main: time 2019-11-26_21:14:00 on domain   1:    2.06237 elapsed seconds
Timing for main: time 2019-11-26_21:14:15 on domain   1:    2.06167 elapsed seconds
Timing for main: time 2019-11-26_21:14:30 on domain   1:    2.06580 elapsed seconds
Timing for main: time 2019-11-26_21:14:45 on domain   1:    2.06488 elapsed seconds
Timing for main: time 2019-11-26_21:15:00 on domain   1:    2.06408 elapsed seconds
Timing for main: time 2019-11-26_21:15:15 on domain   1:    2.06190 elapsed seconds
Timing for main: time 2019-11-26_21:15:30 on domain   1:    2.06176 elapsed seconds
Timing for main: time 2019-11-26_21:15:45 on domain   1:    2.06043 elapsed seconds
Timing for main: time 2019-11-26_21:16:00 on domain   1:    2.05993 elapsed seconds
Timing for main: time 2019-11-26_21:16:15 on domain   1:    2.06142 elapsed seconds
Timing for main: time 2019-11-26_21:16:30 on domain   1:    2.05919 elapsed seconds
Timing for main: time 2019-11-26_21:16:45 on domain   1:    2.06417 elapsed seconds
Timing for main: time 2019-11-26_21:17:00 on domain   1:    2.06306 elapsed seconds
Timing for main: time 2019-11-26_21:17:15 on domain   1:    2.05822 elapsed seconds
Timing for main: time 2019-11-26_21:17:30 on domain   1:    2.06626 elapsed seconds
Timing for main: time 2019-11-26_21:17:45 on domain   1:    2.06179 elapsed seconds
Timing for main: time 2019-11-26_21:18:00 on domain   1:    2.06329 elapsed seconds
Timing for main: time 2019-11-26_21:18:15 on domain   1:    2.06252 elapsed seconds
Timing for main: time 2019-11-26_21:18:30 on domain   1:    2.06232 elapsed seconds
Timing for main: time 2019-11-26_21:18:45 on domain   1:    2.06008 elapsed seconds
Timing for main: time 2019-11-26_21:19:00 on domain   1:    2.06391 elapsed seconds
Timing for main: time 2019-11-26_21:19:15 on domain   1:    2.06207 elapsed seconds
Timing for main: time 2019-11-26_21:19:30 on domain   1:    2.06232 elapsed seconds
Timing for main: time 2019-11-26_21:19:45 on domain   1:    2.06019 elapsed seconds
Timing for main: time 2019-11-26_21:20:00 on domain   1:    2.05987 elapsed seconds
Timing for main: time 2019-11-26_21:20:15 on domain   1:   16.28231 elapsed seconds
Timing for main: time 2019-11-26_21:20:30 on domain   1:    2.05781 elapsed seconds
Timing for main: time 2019-11-26_21:20:45 on domain   1:    2.06257 elapsed seconds
Timing for main: time 2019-11-26_21:21:00 on domain   1:    2.06028 elapsed seconds
Timing for main: time 2019-11-26_21:21:15 on domain   1:    2.06366 elapsed seconds
Timing for main: time 2019-11-26_21:21:30 on domain   1:    2.06148 elapsed seconds
Timing for main: time 2019-11-26_21:21:45 on domain   1:    2.06434 elapsed seconds
Timing for main: time 2019-11-26_21:22:00 on domain   1:    2.31258 elapsed seconds
Timing for main: time 2019-11-26_21:22:15 on domain   1:    2.05692 elapsed seconds
Timing for main: time 2019-11-26_21:22:30 on domain   1:    2.05917 elapsed seconds
Timing for main: time 2019-11-26_21:22:45 on domain   1:    2.05857 elapsed seconds
Timing for main: time 2019-11-26_21:23:00 on domain   1:    2.05685 elapsed seconds
Timing for main: time 2019-11-26_21:23:15 on domain   1:    2.05920 elapsed seconds
Timing for main: time 2019-11-26_21:23:30 on domain   1:    2.05786 elapsed seconds
Timing for main: time 2019-11-26_21:23:45 on domain   1:    2.05787 elapsed seconds
Timing for main: time 2019-11-26_21:24:00 on domain   1:    2.05608 elapsed seconds
Timing for main: time 2019-11-26_21:24:15 on domain   1:    2.05713 elapsed seconds
Timing for main: time 2019-11-26_21:24:30 on domain   1:    2.05826 elapsed seconds
Timing for main: time 2019-11-26_21:24:45 on domain   1:    2.05773 elapsed seconds
Timing for main: time 2019-11-26_21:25:00 on domain   1:    3.53033 elapsed seconds
Timing for main: time 2019-11-26_21:25:15 on domain   1:    2.09059 elapsed seconds
Timing for main: time 2019-11-26_21:25:30 on domain   1:    2.05804 elapsed seconds
Timing for main: time 2019-11-26_21:25:45 on domain   1:    2.05845 elapsed seconds
Timing for main: time 2019-11-26_21:26:00 on domain   1:    2.06278 elapsed seconds
Timing for main: time 2019-11-26_21:26:15 on domain   1:    2.05755 elapsed seconds
Timing for main: time 2019-11-26_21:26:30 on domain   1:    2.05697 elapsed seconds
Timing for main: time 2019-11-26_21:26:45 on domain   1:    2.05862 elapsed seconds
Timing for main: time 2019-11-26_21:27:00 on domain   1:    2.05752 elapsed seconds
Timing for main: time 2019-11-26_21:27:15 on domain   1:    2.05932 elapsed seconds
Timing for main: time 2019-11-26_21:27:30 on domain   1:    2.05861 elapsed seconds
Timing for main: time 2019-11-26_21:27:45 on domain   1:    2.05613 elapsed seconds
Timing for main: time 2019-11-26_21:28:00 on domain   1:    2.05910 elapsed seconds
Timing for main: time 2019-11-26_21:28:15 on domain   1:    2.05761 elapsed seconds
Timing for main: time 2019-11-26_21:28:30 on domain   1:    2.05626 elapsed seconds
Timing for main: time 2019-11-26_21:28:45 on domain   1:    2.05554 elapsed seconds
Timing for main: time 2019-11-26_21:29:00 on domain   1:    2.05775 elapsed seconds
Timing for main: time 2019-11-26_21:29:15 on domain   1:    2.05677 elapsed seconds
Timing for main: time 2019-11-26_21:29:30 on domain   1:    2.05629 elapsed seconds
Timing for main: time 2019-11-26_21:29:45 on domain   1:    2.05849 elapsed seconds
Timing for main: time 2019-11-26_21:30:00 on domain   1:    2.05738 elapsed seconds
Timing for main: time 2019-11-26_21:30:15 on domain   1:   16.20214 elapsed seconds
Timing for main: time 2019-11-26_21:30:30 on domain   1:    2.05764 elapsed seconds
Timing for main: time 2019-11-26_21:30:45 on domain   1:    2.05898 elapsed seconds
Timing for main: time 2019-11-26_21:31:00 on domain   1:    2.05749 elapsed seconds
Timing for main: time 2019-11-26_21:31:15 on domain   1:    2.05626 elapsed seconds
Timing for main: time 2019-11-26_21:31:30 on domain   1:    2.06032 elapsed seconds
Timing for main: time 2019-11-26_21:31:45 on domain   1:    2.05904 elapsed seconds
Timing for main: time 2019-11-26_21:32:00 on domain   1:    2.05540 elapsed seconds
Timing for main: time 2019-11-26_21:32:15 on domain   1:    2.06008 elapsed seconds
Timing for main: time 2019-11-26_21:32:30 on domain   1:    2.05970 elapsed seconds
Timing for main: time 2019-11-26_21:32:45 on domain   1:    2.06018 elapsed seconds
Timing for main: time 2019-11-26_21:33:00 on domain   1:    2.06086 elapsed seconds
Timing for main: time 2019-11-26_21:33:15 on domain   1:    2.05978 elapsed seconds
Timing for main: time 2019-11-26_21:33:30 on domain   1:    2.06364 elapsed seconds
Timing for main: time 2019-11-26_21:33:45 on domain   1:    2.05996 elapsed seconds
Timing for main: time 2019-11-26_21:34:00 on domain   1:    2.06629 elapsed seconds
Timing for main: time 2019-11-26_21:34:15 on domain   1:    2.05930 elapsed seconds
Timing for main: time 2019-11-26_21:34:30 on domain   1:    2.06222 elapsed seconds
Timing for main: time 2019-11-26_21:34:45 on domain   1:    2.35738 elapsed seconds
Timing for main: time 2019-11-26_21:35:00 on domain   1:    2.05895 elapsed seconds
Timing for main: time 2019-11-26_21:35:15 on domain   1:    2.06040 elapsed seconds
Timing for main: time 2019-11-26_21:35:30 on domain   1:    2.05914 elapsed seconds
Timing for main: time 2019-11-26_21:35:45 on domain   1:    2.06111 elapsed seconds
Timing for main: time 2019-11-26_21:36:00 on domain   1:    2.06169 elapsed seconds
Timing for main: time 2019-11-26_21:36:15 on domain   1:    2.05947 elapsed seconds
Timing for main: time 2019-11-26_21:36:30 on domain   1:    2.05992 elapsed seconds
Timing for main: time 2019-11-26_21:36:45 on domain   1:    2.06030 elapsed seconds
Timing for main: time 2019-11-26_21:37:00 on domain   1:    2.06078 elapsed seconds
Timing for main: time 2019-11-26_21:37:15 on domain   1:    2.06340 elapsed seconds
Timing for main: time 2019-11-26_21:37:30 on domain   1:    2.05982 elapsed seconds
Timing for main: time 2019-11-26_21:37:45 on domain   1:    2.05875 elapsed seconds
Timing for main: time 2019-11-26_21:38:00 on domain   1:    2.06225 elapsed seconds
Timing for main: time 2019-11-26_21:38:15 on domain   1:    2.57663 elapsed seconds
Timing for main: time 2019-11-26_21:38:30 on domain   1:    2.81128 elapsed seconds
Timing for main: time 2019-11-26_21:38:45 on domain   1:    2.06898 elapsed seconds
Timing for main: time 2019-11-26_21:39:00 on domain   1:    2.06263 elapsed seconds
Timing for main: time 2019-11-26_21:39:15 on domain   1:    2.06682 elapsed seconds
Timing for main: time 2019-11-26_21:39:30 on domain   1:    2.06449 elapsed seconds
Timing for main: time 2019-11-26_21:39:45 on domain   1:    2.06559 elapsed seconds
Timing for main: time 2019-11-26_21:40:00 on domain   1:    2.06275 elapsed seconds
Timing for main: time 2019-11-26_21:40:15 on domain   1:   16.24488 elapsed seconds
Timing for main: time 2019-11-26_21:40:30 on domain   1:    2.07060 elapsed seconds
Timing for main: time 2019-11-26_21:40:45 on domain   1:    2.06908 elapsed seconds
Timing for main: time 2019-11-26_21:41:00 on domain   1:    2.07197 elapsed seconds
Timing for main: time 2019-11-26_21:41:15 on domain   1:    2.07288 elapsed seconds
Timing for main: time 2019-11-26_21:41:30 on domain   1:    2.07028 elapsed seconds
Timing for main: time 2019-11-26_21:41:45 on domain   1:    2.07055 elapsed seconds
Timing for main: time 2019-11-26_21:42:00 on domain   1:    2.07240 elapsed seconds
Timing for main: time 2019-11-26_21:42:15 on domain   1:    2.06905 elapsed seconds
Timing for main: time 2019-11-26_21:42:30 on domain   1:    2.07039 elapsed seconds
Timing for main: time 2019-11-26_21:42:45 on domain   1:    2.07088 elapsed seconds
Timing for main: time 2019-11-26_21:43:00 on domain   1:    2.06990 elapsed seconds
Timing for main: time 2019-11-26_21:43:15 on domain   1:    2.07588 elapsed seconds
Timing for main: time 2019-11-26_21:43:30 on domain   1:    2.07141 elapsed seconds
Timing for main: time 2019-11-26_21:43:45 on domain   1:    2.07107 elapsed seconds
Timing for main: time 2019-11-26_21:44:00 on domain   1:    2.07658 elapsed seconds
[...]
Timing for main: time 2019-11-26_23:01:30 on domain   1:    2.10496 elapsed seconds
Timing for main: time 2019-11-26_23:01:45 on domain   1:    2.10524 elapsed seconds
Timing for main: time 2019-11-26_23:02:00 on domain   1:    2.10381 elapsed seconds
Timing for main: time 2019-11-26_23:02:15 on domain   1:    2.10627 elapsed seconds
Timing for main: time 2019-11-26_23:02:30 on domain   1:    2.10410 elapsed seconds
Timing for main: time 2019-11-26_23:02:45 on domain   1:    2.10448 elapsed seconds
Timing for main: time 2019-11-26_23:03:00 on domain   1:    2.10365 elapsed seconds
Timing for main: time 2019-11-26_23:03:15 on domain   1:    3.36791 elapsed seconds
Timing for main: time 2019-11-26_23:03:30 on domain   1:    2.19628 elapsed seconds
Timing for main: time 2019-11-26_23:03:45 on domain   1:    2.10835 elapsed seconds
Timing for main: time 2019-11-26_23:04:00 on domain   1:    2.10118 elapsed seconds
Timing for main: time 2019-11-26_23:04:15 on domain   1:    2.10149 elapsed seconds
Timing for main: time 2019-11-26_23:04:30 on domain   1:    2.09976 elapsed seconds
Timing for main: time 2019-11-26_23:04:45 on domain   1:    2.10572 elapsed seconds
Timing for main: time 2019-11-26_23:05:00 on domain   1:    2.10126 elapsed seconds
Timing for main: time 2019-11-26_23:05:15 on domain   1:    2.10249 elapsed seconds
Timing for main: time 2019-11-26_23:05:30 on domain   1:    2.09845 elapsed seconds
Timing for main: time 2019-11-26_23:05:45 on domain   1:    2.10290 elapsed seconds
Timing for main: time 2019-11-26_23:06:00 on domain   1:    2.10091 elapsed seconds
Timing for main: time 2019-11-26_23:06:15 on domain   1:    2.10291 elapsed seconds
Timing for main: time 2019-11-26_23:06:30 on domain   1:    2.10050 elapsed seconds
Timing for main: time 2019-11-26_23:06:45 on domain   1:    2.10287 elapsed seconds
Timing for main: time 2019-11-26_23:07:00 on domain   1:    2.10077 elapsed seconds
Timing for main: time 2019-11-26_23:07:15 on domain   1:    2.10447 elapsed seconds
Timing for main: time 2019-11-26_23:07:30 on domain   1:    2.10216 elapsed seconds
Timing for main: time 2019-11-26_23:07:45 on domain   1:    2.10123 elapsed seconds
Timing for main: time 2019-11-26_23:08:00 on domain   1:    2.09969 elapsed seconds
Timing for main: time 2019-11-26_23:08:15 on domain   1:    2.10359 elapsed seconds
Timing for main: time 2019-11-26_23:08:30 on domain   1:    2.10172 elapsed seconds
Timing for main: time 2019-11-26_23:08:45 on domain   1:    2.10106 elapsed seconds
Timing for main: time 2019-11-26_23:09:00 on domain   1:    2.09840 elapsed seconds
Timing for main: time 2019-11-26_23:09:15 on domain   1:    2.09955 elapsed seconds
Timing for main: time 2019-11-26_23:09:30 on domain   1:    2.09865 elapsed seconds
Timing for main: time 2019-11-26_23:09:45 on domain   1:    2.10042 elapsed seconds
Timing for main: time 2019-11-26_23:10:00 on domain   1:    2.10143 elapsed seconds
Timing for main: time 2019-11-26_23:10:15 on domain   1:   14.89411 elapsed seconds
Timing for main: time 2019-11-26_23:10:30 on domain   1:    2.10770 elapsed seconds
Timing for main: time 2019-11-26_23:10:45 on domain   1:    2.10979 elapsed seconds
Timing for main: time 2019-11-26_23:11:00 on domain   1:    2.11055 elapsed seconds
Timing for main: time 2019-11-26_23:11:15 on domain   1:    2.10895 elapsed seconds
Timing for main: time 2019-11-26_23:11:30 on domain   1:    2.10813 elapsed seconds
Timing for main: time 2019-11-26_23:11:45 on domain   1:    2.10933 elapsed seconds
Timing for main: time 2019-11-26_23:12:00 on domain   1:    2.10723 elapsed seconds
Timing for main: time 2019-11-26_23:12:15 on domain   1:    2.10923 elapsed seconds
Timing for main: time 2019-11-26_23:12:30 on domain   1:    2.10959 elapsed seconds
Timing for main: time 2019-11-26_23:12:45 on domain   1:    2.10631 elapsed seconds
Timing for main: time 2019-11-26_23:13:00 on domain   1:    2.10747 elapsed seconds
Timing for main: time 2019-11-26_23:13:15 on domain   1:    2.10785 elapsed seconds
Timing for main: time 2019-11-26_23:13:30 on domain   1:    2.10693 elapsed seconds
Timing for main: time 2019-11-26_23:13:45 on domain   1:    2.10870 elapsed seconds
Timing for main: time 2019-11-26_23:14:00 on domain   1:    2.10816 elapsed seconds
Timing for main: time 2019-11-26_23:14:15 on domain   1:    2.10809 elapsed seconds
Timing for main: time 2019-11-26_23:14:30 on domain   1:    2.10877 elapsed seconds
Timing for main: time 2019-11-26_23:14:45 on domain   1:    2.10415 elapsed seconds
Timing for main: time 2019-11-26_23:15:00 on domain   1:    2.10713 elapsed seconds
Timing for main: time 2019-11-26_23:15:15 on domain   1:    2.10798 elapsed seconds
Timing for main: time 2019-11-26_23:15:30 on domain   1:    2.10699 elapsed seconds
Timing for main: time 2019-11-26_23:15:45 on domain   1:    2.10607 elapsed seconds
Timing for main: time 2019-11-26_23:16:00 on domain   1:    2.10637 elapsed seconds
Timing for main: time 2019-11-26_23:16:15 on domain   1:    2.39635 elapsed seconds
Timing for main: time 2019-11-26_23:16:30 on domain   1:    3.06495 elapsed seconds
Timing for main: time 2019-11-26_23:16:45 on domain   1:    2.11969 elapsed seconds
Timing for main: time 2019-11-26_23:17:00 on domain   1:    2.10402 elapsed seconds
Timing for main: time 2019-11-26_23:17:15 on domain   1:    2.10447 elapsed seconds
Timing for main: time 2019-11-26_23:17:30 on domain   1:    2.10517 elapsed seconds
Timing for main: time 2019-11-26_23:17:45 on domain   1:    2.10259 elapsed seconds
Timing for main: time 2019-11-26_23:18:00 on domain   1:    2.10351 elapsed seconds
Timing for main: time 2019-11-26_23:18:15 on domain   1:    2.10563 elapsed seconds
Timing for main: time 2019-11-26_23:18:30 on domain   1:    2.10576 elapsed seconds
Timing for main: time 2019-11-26_23:18:45 on domain   1:    2.10637 elapsed seconds
Timing for main: time 2019-11-26_23:19:00 on domain   1:    2.10321 elapsed seconds
Timing for main: time 2019-11-26_23:19:15 on domain   1:    2.10301 elapsed seconds
Timing for main: time 2019-11-26_23:19:30 on domain   1:    2.10411 elapsed seconds
Timing for main: time 2019-11-26_23:19:45 on domain   1:    2.10576 elapsed seconds
Timing for main: time 2019-11-26_23:20:00 on domain   1:    2.10628 elapsed seconds
Timing for main: time 2019-11-26_23:20:15 on domain   1:   14.78800 elapsed seconds
Timing for main: time 2019-11-26_23:20:30 on domain   1:    2.10267 elapsed seconds
Timing for main: time 2019-11-26_23:20:45 on domain   1:    2.10473 elapsed seconds
Timing for main: time 2019-11-26_23:21:00 on domain   1:    2.10369 elapsed seconds
Timing for main: time 2019-11-26_23:21:15 on domain   1:    2.10224 elapsed seconds
Timing for main: time 2019-11-26_23:21:30 on domain   1:    2.10521 elapsed seconds
Timing for main: time 2019-11-26_23:21:45 on domain   1:    2.10275 elapsed seconds
Timing for main: time 2019-11-26_23:22:00 on domain   1:    2.10365 elapsed seconds
Timing for main: time 2019-11-26_23:22:15 on domain   1:    2.34939 elapsed seconds
Timing for main: time 2019-11-26_23:22:30 on domain   1:    2.10456 elapsed seconds
Timing for main: time 2019-11-26_23:22:45 on domain   1:    2.10355 elapsed seconds
Timing for main: time 2019-11-26_23:23:00 on domain   1:    2.10888 elapsed seconds
Timing for main: time 2019-11-26_23:23:15 on domain   1:    2.10319 elapsed seconds
Timing for main: time 2019-11-26_23:23:30 on domain   1:    2.10601 elapsed seconds
Timing for main: time 2019-11-26_23:23:45 on domain   1:    2.10878 elapsed seconds
Timing for main: time 2019-11-26_23:24:00 on domain   1:    2.10556 elapsed seconds
Timing for main: time 2019-11-26_23:24:15 on domain   1:    2.10771 elapsed seconds
Timing for main: time 2019-11-26_23:24:30 on domain   1:    2.10506 elapsed seconds
Timing for main: time 2019-11-26_23:24:45 on domain   1:    2.10508 elapsed seconds
Timing for main: time 2019-11-26_23:25:00 on domain   1:    2.10289 elapsed seconds
Timing for main: time 2019-11-26_23:25:15 on domain   1:    2.10675 elapsed seconds
Timing for main: time 2019-11-26_23:25:30 on domain   1:    2.10619 elapsed seconds
Timing for main: time 2019-11-26_23:25:45 on domain   1:    2.10840 elapsed seconds
Timing for main: time 2019-11-26_23:26:00 on domain   1:    2.10714 elapsed seconds
Timing for main: time 2019-11-26_23:26:15 on domain   1:    2.10598 elapsed seconds
Timing for main: time 2019-11-26_23:26:30 on domain   1:    2.10371 elapsed seconds
Timing for main: time 2019-11-26_23:26:45 on domain   1:    2.10513 elapsed seconds
Timing for main: time 2019-11-26_23:27:00 on domain   1:    2.10648 elapsed seconds
Timing for main: time 2019-11-26_23:27:15 on domain   1:    2.10481 elapsed seconds
Timing for main: time 2019-11-26_23:27:30 on domain   1:    2.10520 elapsed seconds
Timing for main: time 2019-11-26_23:27:45 on domain   1:    2.10729 elapsed seconds
Timing for main: time 2019-11-26_23:28:00 on domain   1:    2.10734 elapsed seconds
Timing for main: time 2019-11-26_23:28:15 on domain   1:    2.10421 elapsed seconds
Timing for main: time 2019-11-26_23:28:30 on domain   1:    2.10829 elapsed seconds
Timing for main: time 2019-11-26_23:28:45 on domain   1:    2.10765 elapsed seconds
Timing for main: time 2019-11-26_23:29:00 on domain   1:    2.10515 elapsed seconds
Timing for main: time 2019-11-26_23:29:15 on domain   1:    2.10674 elapsed seconds
Timing for main: time 2019-11-26_23:29:30 on domain   1:    3.23450 elapsed seconds
Timing for main: time 2019-11-26_23:29:45 on domain   1:    2.35957 elapsed seconds
Timing for main: time 2019-11-26_23:30:00 on domain   1:    2.10833 elapsed seconds
Timing for main: time 2019-11-26_23:30:15 on domain   1:   14.66555 elapsed seconds
Timing for main: time 2019-11-26_23:30:30 on domain   1:    2.10736 elapsed seconds
Timing for main: time 2019-11-26_23:30:45 on domain   1:    2.10480 elapsed seconds
Timing for main: time 2019-11-26_23:31:00 on domain   1:    2.10656 elapsed seconds
Timing for main: time 2019-11-26_23:31:15 on domain   1:    2.10889 elapsed seconds
Timing for main: time 2019-11-26_23:31:30 on domain   1:    2.10629 elapsed seconds
Timing for main: time 2019-11-26_23:31:45 on domain   1:    2.10484 elapsed seconds
Timing for main: time 2019-11-26_23:32:00 on domain   1:    2.10641 elapsed seconds
Timing for main: time 2019-11-26_23:32:15 on domain   1:    2.11154 elapsed seconds
Timing for main: time 2019-11-26_23:32:30 on domain   1:    2.10829 elapsed seconds
Timing for main: time 2019-11-26_23:32:45 on domain   1:    2.10692 elapsed seconds
Timing for main: time 2019-11-26_23:33:00 on domain   1:    2.10774 elapsed seconds
Timing for main: time 2019-11-26_23:33:15 on domain   1:    2.10646 elapsed seconds
Timing for main: time 2019-11-26_23:33:30 on domain   1:    2.10995 elapsed seconds
Timing for main: time 2019-11-26_23:33:45 on domain   1:    2.10537 elapsed seconds
Timing for main: time 2019-11-26_23:34:00 on domain   1:    2.10951 elapsed seconds
Timing for main: time 2019-11-26_23:34:15 on domain   1:    2.10765 elapsed seconds
Timing for main: time 2019-11-26_23:34:30 on domain   1:    2.10773 elapsed seconds
Timing for main: time 2019-11-26_23:34:45 on domain   1:    2.10641 elapsed seconds
Timing for main: time 2019-11-26_23:35:00 on domain   1:    2.10818 elapsed seconds
Timing for main: time 2019-11-26_23:35:15 on domain   1:    2.36523 elapsed seconds
Timing for main: time 2019-11-26_23:35:30 on domain   1:    2.10930 elapsed seconds
Timing for main: time 2019-11-26_23:35:45 on domain   1:    2.10889 elapsed seconds
Timing for main: time 2019-11-26_23:36:00 on domain   1:    2.10903 elapsed seconds
Timing for main: time 2019-11-26_23:36:15 on domain   1:    2.10766 elapsed seconds
Timing for main: time 2019-11-26_23:36:30 on domain   1:    2.11015 elapsed seconds
Timing for main: time 2019-11-26_23:36:45 on domain   1:    2.10716 elapsed seconds
Timing for main: time 2019-11-26_23:37:00 on domain   1:    2.10974 elapsed seconds
Timing for main: time 2019-11-26_23:37:15 on domain   1:    2.10925 elapsed seconds
Timing for main: time 2019-11-26_23:37:30 on domain   1:    2.10735 elapsed seconds
Timing for main: time 2019-11-26_23:37:45 on domain   1:    2.10895 elapsed seconds
Timing for main: time 2019-11-26_23:38:00 on domain   1:    2.10966 elapsed seconds
Timing for main: time 2019-11-26_23:38:15 on domain   1:    2.10952 elapsed seconds
Timing for main: time 2019-11-26_23:38:30 on domain   1:    2.11058 elapsed seconds
Timing for main: time 2019-11-26_23:38:45 on domain   1:    2.10837 elapsed seconds
Timing for main: time 2019-11-26_23:39:00 on domain   1:    2.10772 elapsed seconds
Timing for main: time 2019-11-26_23:39:15 on domain   1:    2.10709 elapsed seconds
Timing for main: time 2019-11-26_23:39:30 on domain   1:    2.10910 elapsed seconds
Timing for main: time 2019-11-26_23:39:45 on domain   1:    2.10867 elapsed seconds
Timing for main: time 2019-11-26_23:40:00 on domain   1:    2.10987 elapsed seconds
Timing for main: time 2019-11-26_23:40:15 on domain   1:   14.61160 elapsed seconds
Timing for main: time 2019-11-26_23:40:30 on domain   1:    2.10889 elapsed seconds
Timing for main: time 2019-11-26_23:40:45 on domain   1:    2.10939 elapsed seconds
Timing for main: time 2019-11-26_23:41:00 on domain   1:    2.13756 elapsed seconds
Timing for main: time 2019-11-26_23:41:15 on domain   1:    3.48951 elapsed seconds
Timing for main: time 2019-11-26_23:41:30 on domain   1:    2.11366 elapsed seconds
Timing for main: time 2019-11-26_23:41:45 on domain   1:    2.10765 elapsed seconds
Timing for main: time 2019-11-26_23:42:00 on domain   1:    2.10452 elapsed seconds
Timing for main: time 2019-11-26_23:42:15 on domain   1:    2.10775 elapsed seconds
Timing for main: time 2019-11-26_23:42:30 on domain   1:    2.10627 elapsed seconds
Timing for main: time 2019-11-26_23:42:45 on domain   1:    2.10802 elapsed seconds
Timing for main: time 2019-11-26_23:43:00 on domain   1:    2.10983 elapsed seconds
Timing for main: time 2019-11-26_23:43:15 on domain   1:    2.10750 elapsed seconds
Timing for main: time 2019-11-26_23:43:30 on domain   1:    2.10708 elapsed seconds
Timing for main: time 2019-11-26_23:43:45 on domain   1:    2.10596 elapsed seconds
Timing for main: time 2019-11-26_23:44:00 on domain   1:    2.10921 elapsed seconds
Timing for main: time 2019-11-26_23:44:15 on domain   1:    2.10823 elapsed seconds
Timing for main: time 2019-11-26_23:44:30 on domain   1:    2.10985 elapsed seconds
Timing for main: time 2019-11-26_23:44:45 on domain   1:    2.10649 elapsed seconds
Timing for main: time 2019-11-26_23:45:00 on domain   1:    2.10697 elapsed seconds
Timing for main: time 2019-11-26_23:45:15 on domain   1:    2.10732 elapsed seconds
Timing for main: time 2019-11-26_23:45:30 on domain   1:    2.10567 elapsed seconds
Timing for main: time 2019-11-26_23:45:45 on domain   1:    2.10951 elapsed seconds
Timing for main: time 2019-11-26_23:46:00 on domain   1:    2.10769 elapsed seconds
Timing for main: time 2019-11-26_23:46:15 on domain   1:    2.10778 elapsed seconds
Timing for main: time 2019-11-26_23:46:30 on domain   1:    2.10677 elapsed seconds
Timing for main: time 2019-11-26_23:46:45 on domain   1:    2.10695 elapsed seconds
Timing for main: time 2019-11-26_23:47:00 on domain   1:    2.10723 elapsed seconds
Timing for main: time 2019-11-26_23:47:15 on domain   1:    2.10458 elapsed seconds
Timing for main: time 2019-11-26_23:47:30 on domain   1:    2.10691 elapsed seconds
Timing for main: time 2019-11-26_23:47:45 on domain   1:    2.17707 elapsed seconds
Timing for main: time 2019-11-26_23:48:00 on domain   1:    2.14593 elapsed seconds
Timing for main: time 2019-11-26_23:48:15 on domain   1:    2.10551 elapsed seconds
Timing for main: time 2019-11-26_23:48:30 on domain   1:    2.10767 elapsed seconds
Timing for main: time 2019-11-26_23:48:45 on domain   1:    2.10852 elapsed seconds
Timing for main: time 2019-11-26_23:49:00 on domain   1:    2.10454 elapsed seconds
Timing for main: time 2019-11-26_23:49:15 on domain   1:    2.11391 elapsed seconds
Timing for main: time 2019-11-26_23:49:30 on domain   1:    2.10810 elapsed seconds
Timing for main: time 2019-11-26_23:49:45 on domain   1:    2.10932 elapsed seconds
Timing for main: time 2019-11-26_23:50:00 on domain   1:    2.10759 elapsed seconds
Timing for main: time 2019-11-26_23:50:15 on domain   1:   14.56165 elapsed seconds
Timing for main: time 2019-11-26_23:50:30 on domain   1:    2.10896 elapsed seconds
Timing for main: time 2019-11-26_23:50:45 on domain   1:    2.10690 elapsed seconds
Timing for main: time 2019-11-26_23:51:00 on domain   1:    2.10878 elapsed seconds
Timing for main: time 2019-11-26_23:51:15 on domain   1:    2.10548 elapsed seconds
Timing for main: time 2019-11-26_23:51:30 on domain   1:    2.10678 elapsed seconds
Timing for main: time 2019-11-26_23:51:45 on domain   1:    2.10718 elapsed seconds
Timing for main: time 2019-11-26_23:52:00 on domain   1:    2.10560 elapsed seconds
Timing for main: time 2019-11-26_23:52:15 on domain   1:    2.10860 elapsed seconds
Timing for main: time 2019-11-26_23:52:30 on domain   1:    2.10560 elapsed seconds
Timing for main: time 2019-11-26_23:52:45 on domain   1:    2.10829 elapsed seconds
Timing for main: time 2019-11-26_23:53:00 on domain   1:    2.10725 elapsed seconds
Timing for main: time 2019-11-26_23:53:15 on domain   1:    2.11010 elapsed seconds
Timing for main: time 2019-11-26_23:53:30 on domain   1:    2.10929 elapsed seconds
Timing for main: time 2019-11-26_23:53:45 on domain   1:    2.10711 elapsed seconds
Timing for main: time 2019-11-26_23:54:00 on domain   1:    2.10694 elapsed seconds
Timing for main: time 2019-11-26_23:54:15 on domain   1:    2.61356 elapsed seconds
Timing for main: time 2019-11-26_23:54:30 on domain   1:    2.90139 elapsed seconds
Timing for main: time 2019-11-26_23:54:45 on domain   1:    2.11232 elapsed seconds
Timing for main: time 2019-11-26_23:55:00 on domain   1:    2.10758 elapsed seconds
Timing for main: time 2019-11-26_23:55:15 on domain   1:    2.10694 elapsed seconds
Timing for main: time 2019-11-26_23:55:30 on domain   1:    2.10524 elapsed seconds
Timing for main: time 2019-11-26_23:55:45 on domain   1:    2.10656 elapsed seconds
Timing for main: time 2019-11-26_23:56:00 on domain   1:    2.10490 elapsed seconds
Timing for main: time 2019-11-26_23:56:15 on domain   1:    2.10987 elapsed seconds
Timing for main: time 2019-11-26_23:56:30 on domain   1:    2.10608 elapsed seconds
Timing for main: time 2019-11-26_23:56:45 on domain   1:    2.10929 elapsed seconds
Timing for main: time 2019-11-26_23:57:00 on domain   1:    2.10590 elapsed seconds
Timing for main: time 2019-11-26_23:57:15 on domain   1:    2.10393 elapsed seconds
Timing for main: time 2019-11-26_23:57:30 on domain   1:    2.10530 elapsed seconds
Timing for main: time 2019-11-26_23:57:45 on domain   1:    2.10631 elapsed seconds
Timing for main: time 2019-11-26_23:58:00 on domain   1:    2.10200 elapsed seconds
Timing for main: time 2019-11-26_23:58:15 on domain   1:    2.10541 elapsed seconds
Timing for main: time 2019-11-26_23:58:30 on domain   1:    2.10425 elapsed seconds
Timing for main: time 2019-11-26_23:58:45 on domain   1:    2.10937 elapsed seconds
Timing for main: time 2019-11-26_23:59:00 on domain   1:    2.10630 elapsed seconds
Timing for main: time 2019-11-26_23:59:15 on domain   1:    2.10706 elapsed seconds
Timing for main: time 2019-11-26_23:59:30 on domain   1:    2.10602 elapsed seconds
Timing for main: time 2019-11-26_23:59:45 on domain   1:    2.10807 elapsed seconds
Timing for main: time 2019-11-27_00:00:00 on domain   1:    2.10507 elapsed seconds
 mediation_integrate.G        1249 DATASET=HISTORY
 mediation_integrate.G        1250  grid%id            1  grid%oid            2
Timing for Writing wrfout_d01_2019-11-27_00:00:00 for domain        1:    5.00160 elapsed seconds
wrf: SUCCESS COMPLETE WRF
