taskid: 0 hostname: x1006c0s0b1n0
 module_io_quilt_old.F        2931 F
Quilting with   1 groups of   0 I/O tasks.
 Ntasks in X            8 , ntasks in Y           12
*************************************
Configuring physics suite 'conus'

         mp_physics:      8
         cu_physics:      0*
      ra_lw_physics:      4
      ra_sw_physics:      4
     bl_pbl_physics:      2
  sf_sfclay_physics:      2
 sf_surface_physics:      2

(* = option overrides suite setting)
*************************************
Domain # 1: dx =  2500.000 m
WRF V4.7.1 MODEL
No git found or not a git repository, git commit version not available.
 *************************************
 Parent domain
 ids,ide,jds,jde            1        1501           1        1201
 ims,ime,jms,jme           -4         195          -4         107
 ips,ipe,jps,jpe            1         188           1         100
 *************************************
DYNAMICS OPTION: Eulerian Mass Coordinate
 alloc_space_field: domain            1 ,             730206116  bytes allocated
med_initialdata_input: calling input_input
 Input data is acceptable to use: wrfinput_d01
 CURRENT DATE          = 2019-11-26_18:00:00
 SIMULATION START DATE = 2019-11-26_18:00:00
Timing for processing wrfinput file (stream 0) for domain        1:   25.99688 elapsed seconds
Max map factor in domain 1 =  1.02. Scale the dt in the model accordingly.
 D01: Time step                              =    15.0000000      (s)
 D01: Grid Distance                          =    2.50000000      (km)
 D01: Grid Distance Ratio dt/dx              =    6.00000000      (s/km)
 D01: Ratio Including Maximum Map Factor     =    6.13815594      (s/km)
 D01: NML defined reasonable_time_step_ratio =    6.00000000
 Climate GHG input from file from year         1765  to         2499
 CO2   range =    277.91300000000001        579.26400000000001       ppm
 N2O   range =    274.37200000000001        359.79800000000000       ppb
 CH4   range =    738.98599999999999        997.31100000000004       ppb
 CFC11 range =    0.0000000000000000        1.4000000000000000E-002  ppt
 CFC12 range =    0.0000000000000000        2.8809999999999998       ppt
 Normal ending of CAMtr_volume_mixing_ratio file
 GHG annual values from CAM trace gas file
 Year =         2019 , Julian day =          330
 CO2   =    4.1280616288937283E-004  volume mixing ratio
 N2O   =    3.3164731848847696E-007  volume mixing ratio
 CH4   =    1.9046224215321381E-006  volume mixing ratio
 CFC11 =    2.1972312207550427E-010  volume mixing ratio
 CFC12 =    4.9756474391800364E-010  volume mixing ratio
INPUT LandUse = "MODIFIED_IGBP_MODIS_NOAH"
 LANDUSE TYPE = "MODIFIED_IGBP_MODIS_NOAH" FOUND          61  CATEGORIES           2  SEASONS WATER CATEGORY =           17  SNOW CATEGORY =           15
INITIALIZE THREE Noah LSM RELATED TABLES
Skipping over LUTYPE = USGS
 LANDUSE TYPE = MODIFIED_IGBP_MODIS_NOAH FOUND          20  CATEGORIES
 INPUT SOIL TEXTURE CLASSIFICATION = STAS
 SOIL TEXTURE CLASSIFICATION = STAS FOUND          19  CATEGORIES
ThompMP: read qr_acr_qg_V4.dat     instead of computing
ThompMP: read qr_acr_qsV2.dat instead of computing
ThompMP: read freezeH2O.dat instead of computing
 mediation_integrate.G        1249 DATASET=HISTORY
 mediation_integrate.G        1250  grid%id            1  grid%oid            1
Timing for Writing wrfout_d01_2019-11-26_18:00:00 for domain        1:    3.64910 elapsed seconds
 Input data is acceptable to use: wrfbdy_d01
Timing for processing lateral boundary for domain        1:    0.83533 elapsed seconds
WRF NUMBER OF TILES FROM OMP_GET_MAX_THREADS =   4
 Tile Strategy is not specified. Assuming 1D-Y
WRF TILE   1 IS      1 IE    188 JS      1 JE     25
WRF TILE   2 IS      1 IE    188 JS     26 JE     50
WRF TILE   3 IS      1 IE    188 JS     51 JE     75
WRF TILE   4 IS      1 IE    188 JS     76 JE    100
WRF NUMBER OF TILES =   4
Timing for main: time 2019-11-26_18:00:15 on domain   1:   11.82915 elapsed seconds
Timing for main: time 2019-11-26_18:00:30 on domain   1:    0.88581 elapsed seconds
Timing for main: time 2019-11-26_18:00:45 on domain   1:    0.88042 elapsed seconds
Timing for main: time 2019-11-26_18:01:00 on domain   1:    0.88311 elapsed seconds
Timing for main: time 2019-11-26_18:01:15 on domain   1:    0.88164 elapsed seconds
Timing for main: time 2019-11-26_18:01:30 on domain   1:    0.87874 elapsed seconds
Timing for main: time 2019-11-26_18:01:45 on domain   1:    0.88185 elapsed seconds
Timing for main: time 2019-11-26_18:02:00 on domain   1:    0.88615 elapsed seconds
Timing for main: time 2019-11-26_18:02:15 on domain   1:    0.88354 elapsed seconds
Timing for main: time 2019-11-26_18:02:30 on domain   1:    0.88091 elapsed seconds
Timing for main: time 2019-11-26_18:02:45 on domain   1:    0.88386 elapsed seconds
Timing for main: time 2019-11-26_18:03:00 on domain   1:    0.88497 elapsed seconds
Timing for main: time 2019-11-26_18:03:15 on domain   1:    0.88551 elapsed seconds
Timing for main: time 2019-11-26_18:03:30 on domain   1:    0.88167 elapsed seconds
Timing for main: time 2019-11-26_18:03:45 on domain   1:    0.88659 elapsed seconds
Timing for main: time 2019-11-26_18:04:00 on domain   1:    0.88195 elapsed seconds
Timing for main: time 2019-11-26_18:04:15 on domain   1:    0.88385 elapsed seconds
Timing for main: time 2019-11-26_18:04:30 on domain   1:    0.88747 elapsed seconds
Timing for main: time 2019-11-26_18:04:45 on domain   1:    0.88561 elapsed seconds
Timing for main: time 2019-11-26_18:05:00 on domain   1:    0.88539 elapsed seconds
Timing for main: time 2019-11-26_18:05:15 on domain   1:    0.88731 elapsed seconds
Timing for main: time 2019-11-26_18:05:30 on domain   1:    0.86432 elapsed seconds
Timing for main: time 2019-11-26_18:05:45 on domain   1:    0.89003 elapsed seconds
Timing for main: time 2019-11-26_18:06:00 on domain   1:    0.88900 elapsed seconds
Timing for main: time 2019-11-26_18:06:15 on domain   1:    0.88658 elapsed seconds
Timing for main: time 2019-11-26_18:06:30 on domain   1:    0.88813 elapsed seconds
Timing for main: time 2019-11-26_18:06:45 on domain   1:    0.88739 elapsed seconds
Timing for main: time 2019-11-26_18:07:00 on domain   1:    0.88838 elapsed seconds
Timing for main: time 2019-11-26_18:07:15 on domain   1:    0.88665 elapsed seconds
Timing for main: time 2019-11-26_18:07:30 on domain   1:    0.88899 elapsed seconds
Timing for main: time 2019-11-26_18:07:45 on domain   1:    0.88492 elapsed seconds
Timing for main: time 2019-11-26_18:08:00 on domain   1:    0.88941 elapsed seconds
Timing for main: time 2019-11-26_18:08:15 on domain   1:    0.88706 elapsed seconds
Timing for main: time 2019-11-26_18:08:30 on domain   1:    0.88977 elapsed seconds
Timing for main: time 2019-11-26_18:08:45 on domain   1:    0.89039 elapsed seconds
Timing for main: time 2019-11-26_18:09:00 on domain   1:    0.88721 elapsed seconds
Timing for main: time 2019-11-26_18:09:15 on domain   1:    0.89282 elapsed seconds
Timing for main: time 2019-11-26_18:09:30 on domain   1:    0.88894 elapsed seconds
Timing for main: time 2019-11-26_18:09:45 on domain   1:    1.37225 elapsed seconds
Timing for main: time 2019-11-26_18:10:00 on domain   1:    0.88740 elapsed seconds
Timing for main: time 2019-11-26_18:10:15 on domain   1:    7.44293 elapsed seconds
Timing for main: time 2019-11-26_18:10:30 on domain   1:    0.89182 elapsed seconds
Timing for main: time 2019-11-26_18:10:45 on domain   1:    0.89099 elapsed seconds
Timing for main: time 2019-11-26_18:11:00 on domain   1:    0.89414 elapsed seconds
Timing for main: time 2019-11-26_18:11:15 on domain   1:    0.89052 elapsed seconds
Timing for main: time 2019-11-26_18:11:30 on domain   1:    0.89234 elapsed seconds
Timing for main: time 2019-11-26_18:11:45 on domain   1:    0.89816 elapsed seconds
Timing for main: time 2019-11-26_18:12:00 on domain   1:    0.89099 elapsed seconds
Timing for main: time 2019-11-26_18:12:15 on domain   1:    0.89104 elapsed seconds
Timing for main: time 2019-11-26_18:12:30 on domain   1:    0.89287 elapsed seconds
Timing for main: time 2019-11-26_18:12:45 on domain   1:    0.89153 elapsed seconds
Timing for main: time 2019-11-26_18:13:00 on domain   1:    0.89775 elapsed seconds
Timing for main: time 2019-11-26_18:13:15 on domain   1:    0.89248 elapsed seconds
Timing for main: time 2019-11-26_18:13:30 on domain   1:    0.89502 elapsed seconds
Timing for main: time 2019-11-26_18:13:45 on domain   1:    0.89507 elapsed seconds
Timing for main: time 2019-11-26_18:14:00 on domain   1:    0.89234 elapsed seconds
Timing for main: time 2019-11-26_18:14:15 on domain   1:    0.89282 elapsed seconds
Timing for main: time 2019-11-26_18:14:30 on domain   1:    0.89398 elapsed seconds
Timing for main: time 2019-11-26_18:14:45 on domain   1:    0.89477 elapsed seconds
Timing for main: time 2019-11-26_18:15:00 on domain   1:    1.10300 elapsed seconds
Timing for main: time 2019-11-26_18:15:15 on domain   1:    1.15711 elapsed seconds
Timing for main: time 2019-11-26_18:15:30 on domain   1:    0.89703 elapsed seconds
Timing for main: time 2019-11-26_18:15:45 on domain   1:    0.90084 elapsed seconds
Timing for main: time 2019-11-26_18:16:00 on domain   1:    0.88962 elapsed seconds
Timing for main: time 2019-11-26_18:16:15 on domain   1:    0.89643 elapsed seconds
Timing for main: time 2019-11-26_18:16:30 on domain   1:    0.89509 elapsed seconds
Timing for main: time 2019-11-26_18:16:45 on domain   1:    0.89766 elapsed seconds
Timing for main: time 2019-11-26_18:17:00 on domain   1:    0.89639 elapsed seconds
Timing for main: time 2019-11-26_18:17:15 on domain   1:    0.89562 elapsed seconds
Timing for main: time 2019-11-26_18:17:30 on domain   1:    0.89727 elapsed seconds
Timing for main: time 2019-11-26_18:17:45 on domain   1:    0.89905 elapsed seconds
Timing for main: time 2019-11-26_18:18:00 on domain   1:    0.89487 elapsed seconds
Timing for main: time 2019-11-26_18:18:15 on domain   1:    0.89593 elapsed seconds
Timing for main: time 2019-11-26_18:18:30 on domain   1:    0.90093 elapsed seconds
Timing for main: time 2019-11-26_18:18:45 on domain   1:    0.89762 elapsed seconds
Timing for main: time 2019-11-26_18:19:00 on domain   1:    0.89822 elapsed seconds
Timing for main: time 2019-11-26_18:19:15 on domain   1:    0.89824 elapsed seconds
Timing for main: time 2019-11-26_18:19:30 on domain   1:    0.89758 elapsed seconds
Timing for main: time 2019-11-26_18:19:45 on domain   1:    0.90022 elapsed seconds
Timing for main: time 2019-11-26_18:20:00 on domain   1:    0.89854 elapsed seconds
Timing for main: time 2019-11-26_18:20:15 on domain   1:    8.21385 elapsed seconds
Timing for main: time 2019-11-26_18:20:30 on domain   1:    0.90164 elapsed seconds
Timing for main: time 2019-11-26_18:20:45 on domain   1:    0.89352 elapsed seconds
Timing for main: time 2019-11-26_18:21:00 on domain   1:    0.89860 elapsed seconds
Timing for main: time 2019-11-26_18:21:15 on domain   1:    0.90307 elapsed seconds
Timing for main: time 2019-11-26_18:21:30 on domain   1:    0.90106 elapsed seconds
Timing for main: time 2019-11-26_18:21:45 on domain   1:    0.90499 elapsed seconds
Timing for main: time 2019-11-26_18:22:00 on domain   1:    0.90142 elapsed seconds
Timing for main: time 2019-11-26_18:22:15 on domain   1:    0.90542 elapsed seconds
Timing for main: time 2019-11-26_18:22:30 on domain   1:    0.90243 elapsed seconds
Timing for main: time 2019-11-26_18:22:45 on domain   1:    0.90362 elapsed seconds
Timing for main: time 2019-11-26_18:23:00 on domain   1:    0.90523 elapsed seconds
Timing for main: time 2019-11-26_18:23:15 on domain   1:    0.90847 elapsed seconds
Timing for main: time 2019-11-26_18:23:30 on domain   1:    0.90434 elapsed seconds
Timing for main: time 2019-11-26_18:23:45 on domain   1:    0.91005 elapsed seconds
Timing for main: time 2019-11-26_18:24:00 on domain   1:    0.90699 elapsed seconds
Timing for main: time 2019-11-26_18:24:15 on domain   1:    0.91022 elapsed seconds
Timing for main: time 2019-11-26_18:24:30 on domain   1:    0.91060 elapsed seconds
Timing for main: time 2019-11-26_18:24:45 on domain   1:    0.90560 elapsed seconds
Timing for main: time 2019-11-26_18:25:00 on domain   1:    0.90934 elapsed seconds
Timing for main: time 2019-11-26_18:25:15 on domain   1:    0.91303 elapsed seconds
Timing for main: time 2019-11-26_18:25:30 on domain   1:    0.91005 elapsed seconds
Timing for main: time 2019-11-26_18:25:45 on domain   1:    0.91191 elapsed seconds
Timing for main: time 2019-11-26_18:26:00 on domain   1:    0.91237 elapsed seconds
Timing for main: time 2019-11-26_18:26:15 on domain   1:    0.91585 elapsed seconds
Timing for main: time 2019-11-26_18:26:30 on domain   1:    0.91186 elapsed seconds
Timing for main: time 2019-11-26_18:26:45 on domain   1:    0.91343 elapsed seconds
Timing for main: time 2019-11-26_18:27:00 on domain   1:    0.91571 elapsed seconds
Timing for main: time 2019-11-26_18:27:15 on domain   1:    0.91336 elapsed seconds
Timing for main: time 2019-11-26_18:27:30 on domain   1:    0.91305 elapsed seconds
Timing for main: time 2019-11-26_18:27:45 on domain   1:    0.91296 elapsed seconds
Timing for main: time 2019-11-26_18:28:00 on domain   1:    0.90765 elapsed seconds
Timing for main: time 2019-11-26_18:28:15 on domain   1:    0.91742 elapsed seconds
Timing for main: time 2019-11-26_18:28:30 on domain   1:    0.92032 elapsed seconds
Timing for main: time 2019-11-26_18:28:45 on domain   1:    0.91663 elapsed seconds
Timing for main: time 2019-11-26_18:29:00 on domain   1:    0.91677 elapsed seconds
Timing for main: time 2019-11-26_18:29:15 on domain   1:    0.92239 elapsed seconds
Timing for main: time 2019-11-26_18:29:30 on domain   1:    0.91586 elapsed seconds
Timing for main: time 2019-11-26_18:29:45 on domain   1:    0.91678 elapsed seconds
Timing for main: time 2019-11-26_18:30:00 on domain   1:    0.91393 elapsed seconds
Timing for main: time 2019-11-26_18:30:15 on domain   1:    7.84379 elapsed seconds
Timing for main: time 2019-11-26_18:30:30 on domain   1:    0.92307 elapsed seconds
Timing for main: time 2019-11-26_18:30:45 on domain   1:    0.91477 elapsed seconds
Timing for main: time 2019-11-26_18:31:00 on domain   1:    0.92329 elapsed seconds
Timing for main: time 2019-11-26_18:31:15 on domain   1:    0.92052 elapsed seconds
Timing for main: time 2019-11-26_18:31:30 on domain   1:    0.92238 elapsed seconds
Timing for main: time 2019-11-26_18:31:45 on domain   1:    0.91780 elapsed seconds
Timing for main: time 2019-11-26_18:32:00 on domain   1:    0.92349 elapsed seconds
Timing for main: time 2019-11-26_18:32:15 on domain   1:    0.91843 elapsed seconds
Timing for main: time 2019-11-26_18:32:30 on domain   1:    0.92378 elapsed seconds
Timing for main: time 2019-11-26_18:32:45 on domain   1:    0.92840 elapsed seconds
Timing for main: time 2019-11-26_18:33:00 on domain   1:    0.92229 elapsed seconds
Timing for main: time 2019-11-26_18:33:15 on domain   1:    0.92587 elapsed seconds
Timing for main: time 2019-11-26_18:33:30 on domain   1:    0.92228 elapsed seconds
Timing for main: time 2019-11-26_18:33:45 on domain   1:    0.92442 elapsed seconds
Timing for main: time 2019-11-26_18:34:00 on domain   1:    0.92593 elapsed seconds
Timing for main: time 2019-11-26_18:34:15 on domain   1:    0.91933 elapsed seconds
Timing for main: time 2019-11-26_18:34:30 on domain   1:    0.92739 elapsed seconds
Timing for main: time 2019-11-26_18:34:45 on domain   1:    0.92675 elapsed seconds
Timing for main: time 2019-11-26_18:35:00 on domain   1:    0.92745 elapsed seconds
Timing for main: time 2019-11-26_18:35:15 on domain   1:    0.92599 elapsed seconds
Timing for main: time 2019-11-26_18:35:30 on domain   1:    0.92717 elapsed seconds
Timing for main: time 2019-11-26_18:35:45 on domain   1:    0.92647 elapsed seconds
Timing for main: time 2019-11-26_18:36:00 on domain   1:    0.92596 elapsed seconds
Timing for main: time 2019-11-26_18:36:15 on domain   1:    0.92830 elapsed seconds
Timing for main: time 2019-11-26_18:36:30 on domain   1:    0.92674 elapsed seconds
Timing for main: time 2019-11-26_18:36:45 on domain   1:    0.92974 elapsed seconds
Timing for main: time 2019-11-26_18:37:00 on domain   1:    0.93105 elapsed seconds
Timing for main: time 2019-11-26_18:37:15 on domain   1:    0.93117 elapsed seconds
Timing for main: time 2019-11-26_18:37:30 on domain   1:    0.93174 elapsed seconds
Timing for main: time 2019-11-26_18:37:45 on domain   1:    0.92606 elapsed seconds
Timing for main: time 2019-11-26_18:38:00 on domain   1:    1.37533 elapsed seconds
Timing for main: time 2019-11-26_18:38:15 on domain   1:    0.92668 elapsed seconds
Timing for main: time 2019-11-26_18:38:30 on domain   1:    0.92935 elapsed seconds
Timing for main: time 2019-11-26_18:38:45 on domain   1:    0.93454 elapsed seconds
Timing for main: time 2019-11-26_18:39:00 on domain   1:    0.93269 elapsed seconds
Timing for main: time 2019-11-26_18:39:15 on domain   1:    0.93306 elapsed seconds
Timing for main: time 2019-11-26_18:39:30 on domain   1:    0.93475 elapsed seconds
Timing for main: time 2019-11-26_18:39:45 on domain   1:    0.93920 elapsed seconds
Timing for main: time 2019-11-26_18:40:00 on domain   1:    0.92961 elapsed seconds
Timing for main: time 2019-11-26_18:40:15 on domain   1:    7.74893 elapsed seconds
Timing for main: time 2019-11-26_18:40:30 on domain   1:    0.93803 elapsed seconds
Timing for main: time 2019-11-26_18:40:45 on domain   1:    0.93498 elapsed seconds
Timing for main: time 2019-11-26_18:41:00 on domain   1:    0.93679 elapsed seconds
Timing for main: time 2019-11-26_18:41:15 on domain   1:    0.93606 elapsed seconds
Timing for main: time 2019-11-26_18:41:30 on domain   1:    0.93707 elapsed seconds
Timing for main: time 2019-11-26_18:41:45 on domain   1:    0.92883 elapsed seconds
Timing for main: time 2019-11-26_18:42:00 on domain   1:    0.93778 elapsed seconds
Timing for main: time 2019-11-26_18:42:15 on domain   1:    1.47197 elapsed seconds
Timing for main: time 2019-11-26_18:42:30 on domain   1:    0.93898 elapsed seconds
Timing for main: time 2019-11-26_18:42:45 on domain   1:    0.93319 elapsed seconds
Timing for main: time 2019-11-26_18:43:00 on domain   1:    0.94115 elapsed seconds
Timing for main: time 2019-11-26_18:43:15 on domain   1:    0.94379 elapsed seconds
Timing for main: time 2019-11-26_18:43:30 on domain   1:    0.93863 elapsed seconds
Timing for main: time 2019-11-26_18:43:45 on domain   1:    0.93166 elapsed seconds
Timing for main: time 2019-11-26_18:44:00 on domain   1:    0.93674 elapsed seconds
Timing for main: time 2019-11-26_18:44:15 on domain   1:    0.93710 elapsed seconds
Timing for main: time 2019-11-26_18:44:30 on domain   1:    0.94715 elapsed seconds
Timing for main: time 2019-11-26_18:44:45 on domain   1:    0.93319 elapsed seconds
Timing for main: time 2019-11-26_18:45:00 on domain   1:    0.93436 elapsed seconds
Timing for main: time 2019-11-26_18:45:15 on domain   1:    0.94240 elapsed seconds
Timing for main: time 2019-11-26_18:45:30 on domain   1:    0.93635 elapsed seconds
Timing for main: time 2019-11-26_18:45:45 on domain   1:    0.93793 elapsed seconds
Timing for main: time 2019-11-26_18:46:00 on domain   1:    0.94471 elapsed seconds
Timing for main: time 2019-11-26_18:46:15 on domain   1:    0.93871 elapsed seconds
Timing for main: time 2019-11-26_18:46:30 on domain   1:    0.93893 elapsed seconds
Timing for main: time 2019-11-26_18:46:45 on domain   1:    0.94237 elapsed seconds
Timing for main: time 2019-11-26_18:47:00 on domain   1:    0.93955 elapsed seconds
Timing for main: time 2019-11-26_18:47:15 on domain   1:    0.96444 elapsed seconds
Timing for main: time 2019-11-26_18:47:30 on domain   1:    1.96719 elapsed seconds
Timing for main: time 2019-11-26_18:47:45 on domain   1:    0.94179 elapsed seconds
Timing for main: time 2019-11-26_18:48:00 on domain   1:    0.94793 elapsed seconds
Timing for main: time 2019-11-26_18:48:15 on domain   1:    0.94594 elapsed seconds
Timing for main: time 2019-11-26_18:48:30 on domain   1:    0.93847 elapsed seconds
Timing for main: time 2019-11-26_18:48:45 on domain   1:    0.94101 elapsed seconds
Timing for main: time 2019-11-26_18:49:00 on domain   1:    0.94457 elapsed seconds
Timing for main: time 2019-11-26_18:49:15 on domain   1:    0.94070 elapsed seconds
Timing for main: time 2019-11-26_18:49:30 on domain   1:    0.94653 elapsed seconds
Timing for main: time 2019-11-26_18:49:45 on domain   1:    0.94566 elapsed seconds
Timing for main: time 2019-11-26_18:50:00 on domain   1:    0.94250 elapsed seconds
Timing for main: time 2019-11-26_18:50:15 on domain   1:    7.83397 elapsed seconds
Timing for main: time 2019-11-26_18:50:30 on domain   1:    0.94653 elapsed seconds
Timing for main: time 2019-11-26_18:50:45 on domain   1:    0.94490 elapsed seconds
Timing for main: time 2019-11-26_18:51:00 on domain   1:    0.94714 elapsed seconds
Timing for main: time 2019-11-26_18:51:15 on domain   1:    0.94388 elapsed seconds
Timing for main: time 2019-11-26_18:51:30 on domain   1:    0.94396 elapsed seconds
Timing for main: time 2019-11-26_18:51:45 on domain   1:    0.94677 elapsed seconds
Timing for main: time 2019-11-26_18:52:00 on domain   1:    0.94567 elapsed seconds
Timing for main: time 2019-11-26_18:52:15 on domain   1:    0.94904 elapsed seconds
Timing for main: time 2019-11-26_18:52:30 on domain   1:    0.94360 elapsed seconds
Timing for main: time 2019-11-26_18:52:45 on domain   1:    0.94870 elapsed seconds
Timing for main: time 2019-11-26_18:53:00 on domain   1:    0.95519 elapsed seconds
Timing for main: time 2019-11-26_18:53:15 on domain   1:    0.95034 elapsed seconds
Timing for main: time 2019-11-26_18:53:30 on domain   1:    0.95539 elapsed seconds
Timing for main: time 2019-11-26_18:53:45 on domain   1:    0.94949 elapsed seconds
Timing for main: time 2019-11-26_18:54:00 on domain   1:    0.95081 elapsed seconds
Timing for main: time 2019-11-26_18:54:15 on domain   1:    0.94938 elapsed seconds
Timing for main: time 2019-11-26_18:54:30 on domain   1:    0.95268 elapsed seconds
Timing for main: time 2019-11-26_18:54:45 on domain   1:    0.95137 elapsed seconds
Timing for main: time 2019-11-26_18:55:00 on domain   1:    0.94888 elapsed seconds
Timing for main: time 2019-11-26_18:55:15 on domain   1:    0.95012 elapsed seconds
Timing for main: time 2019-11-26_18:55:30 on domain   1:    0.95073 elapsed seconds
Timing for main: time 2019-11-26_18:55:45 on domain   1:    0.95424 elapsed seconds
Timing for main: time 2019-11-26_18:56:00 on domain   1:    0.95366 elapsed seconds
Timing for main: time 2019-11-26_18:56:15 on domain   1:    0.94905 elapsed seconds
Timing for main: time 2019-11-26_18:56:30 on domain   1:    0.95036 elapsed seconds
Timing for main: time 2019-11-26_18:56:45 on domain   1:    0.95359 elapsed seconds
Timing for main: time 2019-11-26_18:57:00 on domain   1:    0.95294 elapsed seconds
Timing for main: time 2019-11-26_18:57:15 on domain   1:    0.96037 elapsed seconds
Timing for main: time 2019-11-26_18:57:30 on domain   1:    0.95355 elapsed seconds
Timing for main: time 2019-11-26_18:57:45 on domain   1:    0.95506 elapsed seconds
Timing for main: time 2019-11-26_18:58:00 on domain   1:    0.95853 elapsed seconds
Timing for main: time 2019-11-26_18:58:15 on domain   1:    0.95545 elapsed seconds
Timing for main: time 2019-11-26_18:58:30 on domain   1:    0.95170 elapsed seconds
Timing for main: time 2019-11-26_18:58:45 on domain   1:    0.95891 elapsed seconds
Timing for main: time 2019-11-26_18:59:00 on domain   1:    0.95594 elapsed seconds
Timing for main: time 2019-11-26_18:59:15 on domain   1:    0.95339 elapsed seconds
Timing for main: time 2019-11-26_18:59:30 on domain   1:    0.95656 elapsed seconds
Timing for main: time 2019-11-26_18:59:45 on domain   1:    0.96180 elapsed seconds
Timing for main: time 2019-11-26_19:00:00 on domain   1:    0.95626 elapsed seconds
 mediation_integrate.G        1249 DATASET=HISTORY
 mediation_integrate.G        1250  grid%id            1  grid%oid            2
Timing for Writing wrfout_d01_2019-11-26_19:00:00 for domain        1:    3.48787 elapsed seconds
Timing for main: time 2019-11-26_19:00:15 on domain   1:   11.41506 elapsed seconds
Timing for main: time 2019-11-26_19:00:30 on domain   1:    0.95677 elapsed seconds
Timing for main: time 2019-11-26_19:00:45 on domain   1:    0.95612 elapsed seconds
Timing for main: time 2019-11-26_19:01:00 on domain   1:    0.96047 elapsed seconds
Timing for main: time 2019-11-26_19:01:15 on domain   1:    0.96441 elapsed seconds
Timing for main: time 2019-11-26_19:01:30 on domain   1:    0.96147 elapsed seconds
Timing for main: time 2019-11-26_19:01:45 on domain   1:    0.96442 elapsed seconds
Timing for main: time 2019-11-26_19:02:00 on domain   1:    0.96104 elapsed seconds
Timing for main: time 2019-11-26_19:02:15 on domain   1:    0.96250 elapsed seconds
Timing for main: time 2019-11-26_19:02:30 on domain   1:    0.95904 elapsed seconds
Timing for main: time 2019-11-26_19:02:45 on domain   1:    0.96322 elapsed seconds
Timing for main: time 2019-11-26_19:03:00 on domain   1:    1.41609 elapsed seconds
Timing for main: time 2019-11-26_19:03:15 on domain   1:    0.95908 elapsed seconds
Timing for main: time 2019-11-26_19:03:30 on domain   1:    0.96024 elapsed seconds
Timing for main: time 2019-11-26_19:03:45 on domain   1:    0.96279 elapsed seconds
Timing for main: time 2019-11-26_19:04:00 on domain   1:    0.96300 elapsed seconds
Timing for main: time 2019-11-26_19:04:15 on domain   1:    0.96426 elapsed seconds
Timing for main: time 2019-11-26_19:04:30 on domain   1:    0.96065 elapsed seconds
Timing for main: time 2019-11-26_19:04:45 on domain   1:    0.96211 elapsed seconds
Timing for main: time 2019-11-26_19:05:00 on domain   1:    0.95892 elapsed seconds
Timing for main: time 2019-11-26_19:05:15 on domain   1:    0.96440 elapsed seconds
Timing for main: time 2019-11-26_19:05:30 on domain   1:    0.96494 elapsed seconds
Timing for main: time 2019-11-26_19:05:45 on domain   1:    0.96626 elapsed seconds
Timing for main: time 2019-11-26_19:06:00 on domain   1:    0.96339 elapsed seconds
Timing for main: time 2019-11-26_19:06:15 on domain   1:    0.97072 elapsed seconds
Timing for main: time 2019-11-26_19:06:30 on domain   1:    0.96598 elapsed seconds
Timing for main: time 2019-11-26_19:06:45 on domain   1:    0.96772 elapsed seconds
Timing for main: time 2019-11-26_19:07:00 on domain   1:    0.96932 elapsed seconds
Timing for main: time 2019-11-26_19:07:15 on domain   1:    0.96682 elapsed seconds
Timing for main: time 2019-11-26_19:07:30 on domain   1:    0.96808 elapsed seconds
Timing for main: time 2019-11-26_19:07:45 on domain   1:    0.96884 elapsed seconds
Timing for main: time 2019-11-26_19:08:00 on domain   1:    0.96631 elapsed seconds
Timing for main: time 2019-11-26_19:08:15 on domain   1:    0.96920 elapsed seconds
Timing for main: time 2019-11-26_19:08:30 on domain   1:    0.96882 elapsed seconds
Timing for main: time 2019-11-26_19:08:45 on domain   1:    0.96921 elapsed seconds
Timing for main: time 2019-11-26_19:09:00 on domain   1:    1.43713 elapsed seconds
Timing for main: time 2019-11-26_19:09:15 on domain   1:    0.97551 elapsed seconds
Timing for main: time 2019-11-26_19:09:30 on domain   1:    0.96925 elapsed seconds
Timing for main: time 2019-11-26_19:09:45 on domain   1:    0.97097 elapsed seconds
Timing for main: time 2019-11-26_19:10:00 on domain   1:    0.97364 elapsed seconds
Timing for main: time 2019-11-26_19:10:15 on domain   1:    7.94076 elapsed seconds
Timing for main: time 2019-11-26_19:10:30 on domain   1:    0.97276 elapsed seconds
Timing for main: time 2019-11-26_19:10:45 on domain   1:    0.97153 elapsed seconds
Timing for main: time 2019-11-26_19:11:00 on domain   1:    0.97586 elapsed seconds
Timing for main: time 2019-11-26_19:11:15 on domain   1:    0.97168 elapsed seconds
Timing for main: time 2019-11-26_19:11:30 on domain   1:    0.97494 elapsed seconds
Timing for main: time 2019-11-26_19:11:45 on domain   1:    0.97497 elapsed seconds
Timing for main: time 2019-11-26_19:12:00 on domain   1:    0.97311 elapsed seconds
Timing for main: time 2019-11-26_19:12:15 on domain   1:    0.97690 elapsed seconds
Timing for main: time 2019-11-26_19:12:30 on domain   1:    1.62311 elapsed seconds
Timing for main: time 2019-11-26_19:12:45 on domain   1:    1.33438 elapsed seconds
Timing for main: time 2019-11-26_19:13:00 on domain   1:    0.97156 elapsed seconds
Timing for main: time 2019-11-26_19:13:15 on domain   1:    0.97424 elapsed seconds
Timing for main: time 2019-11-26_19:13:30 on domain   1:    0.97379 elapsed seconds
Timing for main: time 2019-11-26_19:13:45 on domain   1:    0.97782 elapsed seconds
Timing for main: time 2019-11-26_19:14:00 on domain   1:    0.97481 elapsed seconds
Timing for main: time 2019-11-26_19:14:15 on domain   1:    0.97510 elapsed seconds
Timing for main: time 2019-11-26_19:14:30 on domain   1:    0.97621 elapsed seconds
Timing for main: time 2019-11-26_19:14:45 on domain   1:    0.97800 elapsed seconds
Timing for main: time 2019-11-26_19:15:00 on domain   1:    0.97828 elapsed seconds
Timing for main: time 2019-11-26_19:15:15 on domain   1:    0.97548 elapsed seconds
Timing for main: time 2019-11-26_19:15:30 on domain   1:    0.97629 elapsed seconds
Timing for main: time 2019-11-26_19:15:45 on domain   1:    0.97748 elapsed seconds
Timing for main: time 2019-11-26_19:16:00 on domain   1:    0.97654 elapsed seconds
Timing for main: time 2019-11-26_19:16:15 on domain   1:    0.97471 elapsed seconds
Timing for main: time 2019-11-26_19:16:30 on domain   1:    0.97769 elapsed seconds
Timing for main: time 2019-11-26_19:16:45 on domain   1:    0.97871 elapsed seconds
Timing for main: time 2019-11-26_19:17:00 on domain   1:    0.97947 elapsed seconds
Timing for main: time 2019-11-26_19:17:15 on domain   1:    0.97677 elapsed seconds
Timing for main: time 2019-11-26_19:17:30 on domain   1:    0.97996 elapsed seconds
Timing for main: time 2019-11-26_19:17:45 on domain   1:    0.97986 elapsed seconds
Timing for main: time 2019-11-26_19:18:00 on domain   1:    0.98083 elapsed seconds
Timing for main: time 2019-11-26_19:18:15 on domain   1:    0.97869 elapsed seconds
Timing for main: time 2019-11-26_19:18:30 on domain   1:    0.98428 elapsed seconds
Timing for main: time 2019-11-26_19:18:45 on domain   1:    0.98013 elapsed seconds
Timing for main: time 2019-11-26_19:19:00 on domain   1:    0.97854 elapsed seconds
Timing for main: time 2019-11-26_19:19:15 on domain   1:    0.98048 elapsed seconds
Timing for main: time 2019-11-26_19:19:30 on domain   1:    0.98353 elapsed seconds
Timing for main: time 2019-11-26_19:19:45 on domain   1:    0.97979 elapsed seconds
Timing for main: time 2019-11-26_19:20:00 on domain   1:    0.98449 elapsed seconds
Timing for main: time 2019-11-26_19:20:15 on domain   1:    7.99236 elapsed seconds
Timing for main: time 2019-11-26_19:20:30 on domain   1:    0.98312 elapsed seconds
Timing for main: time 2019-11-26_19:20:45 on domain   1:    0.98218 elapsed seconds
Timing for main: time 2019-11-26_19:21:00 on domain   1:    0.98559 elapsed seconds
Timing for main: time 2019-11-26_19:21:15 on domain   1:    0.98632 elapsed seconds
Timing for main: time 2019-11-26_19:21:30 on domain   1:    0.98269 elapsed seconds
Timing for main: time 2019-11-26_19:21:45 on domain   1:    0.98393 elapsed seconds
Timing for main: time 2019-11-26_19:22:00 on domain   1:    0.98578 elapsed seconds
Timing for main: time 2019-11-26_19:22:15 on domain   1:    0.98506 elapsed seconds
Timing for main: time 2019-11-26_19:22:30 on domain   1:    0.98311 elapsed seconds
Timing for main: time 2019-11-26_19:22:45 on domain   1:    0.98492 elapsed seconds
Timing for main: time 2019-11-26_19:23:00 on domain   1:    0.98744 elapsed seconds
Timing for main: time 2019-11-26_19:23:15 on domain   1:    0.99081 elapsed seconds
Timing for main: time 2019-11-26_19:23:30 on domain   1:    0.99133 elapsed seconds
Timing for main: time 2019-11-26_19:23:45 on domain   1:    0.98775 elapsed seconds
Timing for main: time 2019-11-26_19:24:00 on domain   1:    0.98619 elapsed seconds
Timing for main: time 2019-11-26_19:24:15 on domain   1:    0.99068 elapsed seconds
Timing for main: time 2019-11-26_19:24:30 on domain   1:    0.98841 elapsed seconds
Timing for main: time 2019-11-26_19:24:45 on domain   1:    0.98981 elapsed seconds
Timing for main: time 2019-11-26_19:25:00 on domain   1:    0.98955 elapsed seconds
Timing for main: time 2019-11-26_19:25:15 on domain   1:    0.98841 elapsed seconds
Timing for main: time 2019-11-26_19:25:30 on domain   1:    0.99064 elapsed seconds
Timing for main: time 2019-11-26_19:25:45 on domain   1:    0.98582 elapsed seconds
Timing for main: time 2019-11-26_19:26:00 on domain   1:    0.99457 elapsed seconds
Timing for main: time 2019-11-26_19:26:15 on domain   1:    0.98477 elapsed seconds
Timing for main: time 2019-11-26_19:26:30 on domain   1:    0.99173 elapsed seconds
Timing for main: time 2019-11-26_19:26:45 on domain   1:    0.98763 elapsed seconds
Timing for main: time 2019-11-26_19:27:00 on domain   1:    0.99234 elapsed seconds
Timing for main: time 2019-11-26_19:27:15 on domain   1:    0.98954 elapsed seconds
Timing for main: time 2019-11-26_19:27:30 on domain   1:    0.99184 elapsed seconds
Timing for main: time 2019-11-26_19:27:45 on domain   1:    0.98846 elapsed seconds
Timing for main: time 2019-11-26_19:28:00 on domain   1:    0.99272 elapsed seconds
Timing for main: time 2019-11-26_19:28:15 on domain   1:    0.99055 elapsed seconds
Timing for main: time 2019-11-26_19:28:30 on domain   1:    0.99066 elapsed seconds
Timing for main: time 2019-11-26_19:28:45 on domain   1:    0.99234 elapsed seconds
Timing for main: time 2019-11-26_19:29:00 on domain   1:    0.99395 elapsed seconds
Timing for main: time 2019-11-26_19:29:15 on domain   1:    0.99123 elapsed seconds
Timing for main: time 2019-11-26_19:29:30 on domain   1:    0.99211 elapsed seconds
Timing for main: time 2019-11-26_19:29:45 on domain   1:    0.99210 elapsed seconds
Timing for main: time 2019-11-26_19:30:00 on domain   1:    0.99882 elapsed seconds
Timing for main: time 2019-11-26_19:30:15 on domain   1:    8.58242 elapsed seconds
Timing for main: time 2019-11-26_19:30:30 on domain   1:    0.97984 elapsed seconds
Timing for main: time 2019-11-26_19:30:45 on domain   1:    0.99437 elapsed seconds
Timing for main: time 2019-11-26_19:31:00 on domain   1:    0.99487 elapsed seconds
Timing for main: time 2019-11-26_19:31:15 on domain   1:    0.99855 elapsed seconds
Timing for main: time 2019-11-26_19:31:30 on domain   1:    0.99422 elapsed seconds
Timing for main: time 2019-11-26_19:31:45 on domain   1:    0.98887 elapsed seconds
Timing for main: time 2019-11-26_19:32:00 on domain   1:    0.99669 elapsed seconds
Timing for main: time 2019-11-26_19:32:15 on domain   1:    0.99479 elapsed seconds
Timing for main: time 2019-11-26_19:32:30 on domain   1:    0.99539 elapsed seconds
Timing for main: time 2019-11-26_19:32:45 on domain   1:    0.99606 elapsed seconds
Timing for main: time 2019-11-26_19:33:00 on domain   1:    0.99868 elapsed seconds
Timing for main: time 2019-11-26_19:33:15 on domain   1:    0.99758 elapsed seconds
Timing for main: time 2019-11-26_19:33:30 on domain   1:    0.99859 elapsed seconds
Timing for main: time 2019-11-26_19:33:45 on domain   1:    0.99764 elapsed seconds
Timing for main: time 2019-11-26_19:34:00 on domain   1:    0.99692 elapsed seconds
Timing for main: time 2019-11-26_19:34:15 on domain   1:    0.99802 elapsed seconds
Timing for main: time 2019-11-26_19:34:30 on domain   1:    0.99820 elapsed seconds
Timing for main: time 2019-11-26_19:34:45 on domain   1:    1.50757 elapsed seconds
Timing for main: time 2019-11-26_19:35:00 on domain   1:    1.00712 elapsed seconds
Timing for main: time 2019-11-26_19:35:15 on domain   1:    0.99958 elapsed seconds
Timing for main: time 2019-11-26_19:35:30 on domain   1:    0.99995 elapsed seconds
Timing for main: time 2019-11-26_19:35:45 on domain   1:    1.00201 elapsed seconds
Timing for main: time 2019-11-26_19:36:00 on domain   1:    0.99894 elapsed seconds
Timing for main: time 2019-11-26_19:36:15 on domain   1:    1.00044 elapsed seconds
Timing for main: time 2019-11-26_19:36:30 on domain   1:    0.99903 elapsed seconds
Timing for main: time 2019-11-26_19:36:45 on domain   1:    1.00417 elapsed seconds
Timing for main: time 2019-11-26_19:37:00 on domain   1:    0.99697 elapsed seconds
Timing for main: time 2019-11-26_19:37:15 on domain   1:    1.00118 elapsed seconds
Timing for main: time 2019-11-26_19:37:30 on domain   1:    0.99731 elapsed seconds
Timing for main: time 2019-11-26_19:37:45 on domain   1:    0.99788 elapsed seconds
Timing for main: time 2019-11-26_19:38:00 on domain   1:    1.00257 elapsed seconds
Timing for main: time 2019-11-26_19:38:15 on domain   1:    1.00326 elapsed seconds
Timing for main: time 2019-11-26_19:38:30 on domain   1:    1.00516 elapsed seconds
Timing for main: time 2019-11-26_19:38:45 on domain   1:    0.99874 elapsed seconds
Timing for main: time 2019-11-26_19:39:00 on domain   1:    0.99827 elapsed seconds
Timing for main: time 2019-11-26_19:39:15 on domain   1:    1.00175 elapsed seconds
Timing for main: time 2019-11-26_19:39:30 on domain   1:    0.99730 elapsed seconds
Timing for main: time 2019-11-26_19:39:45 on domain   1:    0.99884 elapsed seconds
Timing for main: time 2019-11-26_19:40:00 on domain   1:    1.32984 elapsed seconds
Timing for main: time 2019-11-26_19:40:15 on domain   1:    8.55307 elapsed seconds
Timing for main: time 2019-11-26_19:40:30 on domain   1:    0.99634 elapsed seconds
Timing for main: time 2019-11-26_19:40:45 on domain   1:    0.99915 elapsed seconds
Timing for main: time 2019-11-26_19:41:00 on domain   1:    1.00107 elapsed seconds
Timing for main: time 2019-11-26_19:41:15 on domain   1:    1.00183 elapsed seconds
Timing for main: time 2019-11-26_19:41:30 on domain   1:    0.99975 elapsed seconds
Timing for main: time 2019-11-26_19:41:45 on domain   1:    0.99710 elapsed seconds
Timing for main: time 2019-11-26_19:42:00 on domain   1:    0.99915 elapsed seconds
Timing for main: time 2019-11-26_19:42:15 on domain   1:    1.00288 elapsed seconds
Timing for main: time 2019-11-26_19:42:30 on domain   1:    1.00121 elapsed seconds
Timing for main: time 2019-11-26_19:42:45 on domain   1:    0.99819 elapsed seconds
Timing for main: time 2019-11-26_19:43:00 on domain   1:    1.00194 elapsed seconds
Timing for main: time 2019-11-26_19:43:15 on domain   1:    1.00166 elapsed seconds
Timing for main: time 2019-11-26_19:43:30 on domain   1:    0.99778 elapsed seconds
Timing for main: time 2019-11-26_19:43:45 on domain   1:    1.00196 elapsed seconds
Timing for main: time 2019-11-26_19:44:00 on domain   1:    0.99818 elapsed seconds
Timing for main: time 2019-11-26_19:44:15 on domain   1:    1.00198 elapsed seconds
Timing for main: time 2019-11-26_19:44:30 on domain   1:    1.00003 elapsed seconds
Timing for main: time 2019-11-26_19:44:45 on domain   1:    0.99966 elapsed seconds
Timing for main: time 2019-11-26_19:45:00 on domain   1:    1.00186 elapsed seconds
Timing for main: time 2019-11-26_19:45:15 on domain   1:    1.00866 elapsed seconds
Timing for main: time 2019-11-26_19:45:30 on domain   1:    1.00165 elapsed seconds
Timing for main: time 2019-11-26_19:45:45 on domain   1:    1.00127 elapsed seconds
Timing for main: time 2019-11-26_19:46:00 on domain   1:    1.00057 elapsed seconds
Timing for main: time 2019-11-26_19:46:15 on domain   1:    1.00039 elapsed seconds
Timing for main: time 2019-11-26_19:46:30 on domain   1:    1.00186 elapsed seconds
Timing for main: time 2019-11-26_19:46:45 on domain   1:    1.00226 elapsed seconds
Timing for main: time 2019-11-26_19:47:00 on domain   1:    1.00090 elapsed seconds
Timing for main: time 2019-11-26_19:47:15 on domain   1:    1.00177 elapsed seconds
Timing for main: time 2019-11-26_19:47:30 on domain   1:    1.00451 elapsed seconds
Timing for main: time 2019-11-26_19:47:45 on domain   1:    1.00320 elapsed seconds
Timing for main: time 2019-11-26_19:48:00 on domain   1:    1.00071 elapsed seconds
Timing for main: time 2019-11-26_19:48:15 on domain   1:    1.00435 elapsed seconds
Timing for main: time 2019-11-26_19:48:30 on domain   1:    1.00199 elapsed seconds
Timing for main: time 2019-11-26_19:48:45 on domain   1:    1.00190 elapsed seconds
Timing for main: time 2019-11-26_19:49:00 on domain   1:    1.00657 elapsed seconds
Timing for main: time 2019-11-26_19:49:15 on domain   1:    1.00563 elapsed seconds
Timing for main: time 2019-11-26_19:49:30 on domain   1:    1.00208 elapsed seconds
Timing for main: time 2019-11-26_19:49:45 on domain   1:    1.00487 elapsed seconds
Timing for main: time 2019-11-26_19:50:00 on domain   1:    1.00101 elapsed seconds
Timing for main: time 2019-11-26_19:50:15 on domain   1:    8.11034 elapsed seconds
Timing for main: time 2019-11-26_19:50:30 on domain   1:    1.00319 elapsed seconds
Timing for main: time 2019-11-26_19:50:45 on domain   1:    1.00340 elapsed seconds
Timing for main: time 2019-11-26_19:51:00 on domain   1:    0.99480 elapsed seconds
Timing for main: time 2019-11-26_19:51:15 on domain   1:    1.00094 elapsed seconds
Timing for main: time 2019-11-26_19:51:30 on domain   1:    1.00499 elapsed seconds
Timing for main: time 2019-11-26_19:51:45 on domain   1:    1.00198 elapsed seconds
Timing for main: time 2019-11-26_19:52:00 on domain   1:    1.00184 elapsed seconds
Timing for main: time 2019-11-26_19:52:15 on domain   1:    1.00272 elapsed seconds
Timing for main: time 2019-11-26_19:52:30 on domain   1:    1.00222 elapsed seconds
Timing for main: time 2019-11-26_19:52:45 on domain   1:    1.00395 elapsed seconds
Timing for main: time 2019-11-26_19:53:00 on domain   1:    1.00288 elapsed seconds
Timing for main: time 2019-11-26_19:53:15 on domain   1:    1.00280 elapsed seconds
Timing for main: time 2019-11-26_19:53:30 on domain   1:    1.00234 elapsed seconds
Timing for main: time 2019-11-26_19:53:45 on domain   1:    0.99857 elapsed seconds
Timing for main: time 2019-11-26_19:54:00 on domain   1:    1.00205 elapsed seconds
Timing for main: time 2019-11-26_19:54:15 on domain   1:    1.00387 elapsed seconds
Timing for main: time 2019-11-26_19:54:30 on domain   1:    1.00101 elapsed seconds
Timing for main: time 2019-11-26_19:54:45 on domain   1:    1.00684 elapsed seconds
Timing for main: time 2019-11-26_19:55:00 on domain   1:    1.00464 elapsed seconds
Timing for main: time 2019-11-26_19:55:15 on domain   1:    0.99680 elapsed seconds
Timing for main: time 2019-11-26_19:55:30 on domain   1:    1.46791 elapsed seconds
Timing for main: time 2019-11-26_19:55:45 on domain   1:    1.00097 elapsed seconds
Timing for main: time 2019-11-26_19:56:00 on domain   1:    1.00288 elapsed seconds
Timing for main: time 2019-11-26_19:56:15 on domain   1:    1.00384 elapsed seconds
Timing for main: time 2019-11-26_19:56:30 on domain   1:    1.00331 elapsed seconds
Timing for main: time 2019-11-26_19:56:45 on domain   1:    1.00404 elapsed seconds
Timing for main: time 2019-11-26_19:57:00 on domain   1:    1.00218 elapsed seconds
Timing for main: time 2019-11-26_19:57:15 on domain   1:    1.00099 elapsed seconds
Timing for main: time 2019-11-26_19:57:30 on domain   1:    1.00557 elapsed seconds
Timing for main: time 2019-11-26_19:57:45 on domain   1:    1.00954 elapsed seconds
Timing for main: time 2019-11-26_19:58:00 on domain   1:    1.00249 elapsed seconds
Timing for main: time 2019-11-26_19:58:15 on domain   1:    1.00152 elapsed seconds
Timing for main: time 2019-11-26_19:58:30 on domain   1:    1.00230 elapsed seconds
Timing for main: time 2019-11-26_19:58:45 on domain   1:    1.00311 elapsed seconds
Timing for main: time 2019-11-26_19:59:00 on domain   1:    1.00499 elapsed seconds
Timing for main: time 2019-11-26_19:59:15 on domain   1:    1.00187 elapsed seconds
Timing for main: time 2019-11-26_19:59:30 on domain   1:    1.00228 elapsed seconds
Timing for main: time 2019-11-26_19:59:45 on domain   1:    1.00200 elapsed seconds
Timing for main: time 2019-11-26_20:00:00 on domain   1:    1.00111 elapsed seconds
 mediation_integrate.G        1249 DATASET=HISTORY
 mediation_integrate.G        1250  grid%id            1  grid%oid            2
Timing for Writing wrfout_d01_2019-11-26_20:00:00 for domain        1:    3.35038 elapsed seconds
Timing for main: time 2019-11-26_20:00:15 on domain   1:   11.45284 elapsed seconds
Timing for main: time 2019-11-26_20:00:30 on domain   1:    1.00637 elapsed seconds
Timing for main: time 2019-11-26_20:00:45 on domain   1:    1.00672 elapsed seconds
Timing for main: time 2019-11-26_20:01:00 on domain   1:    1.00833 elapsed seconds
Timing for main: time 2019-11-26_20:01:15 on domain   1:    1.00997 elapsed seconds
Timing for main: time 2019-11-26_20:01:30 on domain   1:    1.00450 elapsed seconds
Timing for main: time 2019-11-26_20:01:45 on domain   1:    1.00666 elapsed seconds
Timing for main: time 2019-11-26_20:02:00 on domain   1:    1.00632 elapsed seconds
Timing for main: time 2019-11-26_20:02:15 on domain   1:    1.00023 elapsed seconds
Timing for main: time 2019-11-26_20:02:30 on domain   1:    1.00568 elapsed seconds
Timing for main: time 2019-11-26_20:02:45 on domain   1:    1.00593 elapsed seconds
Timing for main: time 2019-11-26_20:03:00 on domain   1:    1.00659 elapsed seconds
Timing for main: time 2019-11-26_20:03:15 on domain   1:    1.00734 elapsed seconds
Timing for main: time 2019-11-26_20:03:30 on domain   1:    1.00761 elapsed seconds
Timing for main: time 2019-11-26_20:03:45 on domain   1:    1.02121 elapsed seconds
Timing for main: time 2019-11-26_20:04:00 on domain   1:    1.00823 elapsed seconds
Timing for main: time 2019-11-26_20:04:15 on domain   1:    1.00781 elapsed seconds
Timing for main: time 2019-11-26_20:04:30 on domain   1:    1.01176 elapsed seconds
Timing for main: time 2019-11-26_20:04:45 on domain   1:    1.78190 elapsed seconds
Timing for main: time 2019-11-26_20:05:00 on domain   1:    1.18862 elapsed seconds
Timing for main: time 2019-11-26_20:05:15 on domain   1:    1.00405 elapsed seconds
Timing for main: time 2019-11-26_20:05:30 on domain   1:    1.01159 elapsed seconds
Timing for main: time 2019-11-26_20:05:45 on domain   1:    1.00768 elapsed seconds
Timing for main: time 2019-11-26_20:06:00 on domain   1:    1.00645 elapsed seconds
Timing for main: time 2019-11-26_20:06:15 on domain   1:    1.01910 elapsed seconds
Timing for main: time 2019-11-26_20:06:30 on domain   1:    1.01371 elapsed seconds
Timing for main: time 2019-11-26_20:06:45 on domain   1:    1.00445 elapsed seconds
Timing for main: time 2019-11-26_20:07:00 on domain   1:    1.00557 elapsed seconds
Timing for main: time 2019-11-26_20:07:15 on domain   1:    1.00695 elapsed seconds
Timing for main: time 2019-11-26_20:07:30 on domain   1:    1.00765 elapsed seconds
Timing for main: time 2019-11-26_20:07:45 on domain   1:    1.00771 elapsed seconds
Timing for main: time 2019-11-26_20:08:00 on domain   1:    1.00972 elapsed seconds
Timing for main: time 2019-11-26_20:08:15 on domain   1:    1.00658 elapsed seconds
Timing for main: time 2019-11-26_20:08:30 on domain   1:    1.00691 elapsed seconds
Timing for main: time 2019-11-26_20:08:45 on domain   1:    1.01414 elapsed seconds
Timing for main: time 2019-11-26_20:09:00 on domain   1:    1.00965 elapsed seconds
Timing for main: time 2019-11-26_20:09:15 on domain   1:    1.00792 elapsed seconds
Timing for main: time 2019-11-26_20:09:30 on domain   1:    1.00449 elapsed seconds
Timing for main: time 2019-11-26_20:09:45 on domain   1:    1.00822 elapsed seconds
Timing for main: time 2019-11-26_20:10:00 on domain   1:    1.00773 elapsed seconds
Timing for main: time 2019-11-26_20:10:15 on domain   1:    8.15831 elapsed seconds
Timing for main: time 2019-11-26_20:10:30 on domain   1:    1.01256 elapsed seconds
Timing for main: time 2019-11-26_20:10:45 on domain   1:    1.00758 elapsed seconds
Timing for main: time 2019-11-26_20:11:00 on domain   1:    1.00690 elapsed seconds
Timing for main: time 2019-11-26_20:11:15 on domain   1:    1.01059 elapsed seconds
Timing for main: time 2019-11-26_20:11:30 on domain   1:    1.00566 elapsed seconds
Timing for main: time 2019-11-26_20:11:45 on domain   1:    1.00880 elapsed seconds
Timing for main: time 2019-11-26_20:12:00 on domain   1:    1.00986 elapsed seconds
Timing for main: time 2019-11-26_20:12:15 on domain   1:    1.00497 elapsed seconds
Timing for main: time 2019-11-26_20:12:30 on domain   1:    1.00916 elapsed seconds
Timing for main: time 2019-11-26_20:12:45 on domain   1:    1.00887 elapsed seconds
Timing for main: time 2019-11-26_20:13:00 on domain   1:    1.00658 elapsed seconds
Timing for main: time 2019-11-26_20:13:15 on domain   1:    1.00909 elapsed seconds
Timing for main: time 2019-11-26_20:13:30 on domain   1:    1.00814 elapsed seconds
Timing for main: time 2019-11-26_20:13:45 on domain   1:    1.00798 elapsed seconds
Timing for main: time 2019-11-26_20:14:00 on domain   1:    1.00773 elapsed seconds
Timing for main: time 2019-11-26_20:14:15 on domain   1:    1.00834 elapsed seconds
Timing for main: time 2019-11-26_20:14:30 on domain   1:    1.00592 elapsed seconds
Timing for main: time 2019-11-26_20:14:45 on domain   1:    1.00438 elapsed seconds
Timing for main: time 2019-11-26_20:15:00 on domain   1:    1.00869 elapsed seconds
Timing for main: time 2019-11-26_20:15:15 on domain   1:    1.01345 elapsed seconds
Timing for main: time 2019-11-26_20:15:30 on domain   1:    1.00644 elapsed seconds
Timing for main: time 2019-11-26_20:15:45 on domain   1:    1.01140 elapsed seconds
Timing for main: time 2019-11-26_20:16:00 on domain   1:    1.01032 elapsed seconds
Timing for main: time 2019-11-26_20:16:15 on domain   1:    1.00841 elapsed seconds
Timing for main: time 2019-11-26_20:16:30 on domain   1:    1.00937 elapsed seconds
Timing for main: time 2019-11-26_20:16:45 on domain   1:    1.00805 elapsed seconds
Timing for main: time 2019-11-26_20:17:00 on domain   1:    1.00619 elapsed seconds
Timing for main: time 2019-11-26_20:17:15 on domain   1:    1.01061 elapsed seconds
Timing for main: time 2019-11-26_20:17:30 on domain   1:    1.01254 elapsed seconds
Timing for main: time 2019-11-26_20:17:45 on domain   1:    1.00881 elapsed seconds
Timing for main: time 2019-11-26_20:18:00 on domain   1:    1.00677 elapsed seconds
Timing for main: time 2019-11-26_20:18:15 on domain   1:    1.01096 elapsed seconds
Timing for main: time 2019-11-26_20:18:30 on domain   1:    1.01187 elapsed seconds
Timing for main: time 2019-11-26_20:18:45 on domain   1:    1.00858 elapsed seconds
Timing for main: time 2019-11-26_20:19:00 on domain   1:    1.01124 elapsed seconds
Timing for main: time 2019-11-26_20:19:15 on domain   1:    1.00755 elapsed seconds
Timing for main: time 2019-11-26_20:19:30 on domain   1:    1.00759 elapsed seconds
Timing for main: time 2019-11-26_20:19:45 on domain   1:    1.00952 elapsed seconds
Timing for main: time 2019-11-26_20:20:00 on domain   1:    1.00932 elapsed seconds
Timing for main: time 2019-11-26_20:20:15 on domain   1:    8.53109 elapsed seconds
Timing for main: time 2019-11-26_20:20:30 on domain   1:    1.00704 elapsed seconds
Timing for main: time 2019-11-26_20:20:45 on domain   1:    1.00511 elapsed seconds
Timing for main: time 2019-11-26_20:21:00 on domain   1:    1.00723 elapsed seconds
Timing for main: time 2019-11-26_20:21:15 on domain   1:    1.00685 elapsed seconds
Timing for main: time 2019-11-26_20:21:30 on domain   1:    1.00517 elapsed seconds
Timing for main: time 2019-11-26_20:21:45 on domain   1:    1.00459 elapsed seconds
Timing for main: time 2019-11-26_20:22:00 on domain   1:    1.00696 elapsed seconds
Timing for main: time 2019-11-26_20:22:15 on domain   1:    1.00640 elapsed seconds
Timing for main: time 2019-11-26_20:22:30 on domain   1:    1.00725 elapsed seconds
Timing for main: time 2019-11-26_20:22:45 on domain   1:    1.00755 elapsed seconds
Timing for main: time 2019-11-26_20:23:00 on domain   1:    1.00553 elapsed seconds
Timing for main: time 2019-11-26_20:23:15 on domain   1:    1.00698 elapsed seconds
Timing for main: time 2019-11-26_20:23:30 on domain   1:    1.00855 elapsed seconds
Timing for main: time 2019-11-26_20:23:45 on domain   1:    1.00698 elapsed seconds
Timing for main: time 2019-11-26_20:24:00 on domain   1:    1.00721 elapsed seconds
Timing for main: time 2019-11-26_20:24:15 on domain   1:    1.00479 elapsed seconds
Timing for main: time 2019-11-26_20:24:30 on domain   1:    1.00512 elapsed seconds
Timing for main: time 2019-11-26_20:24:45 on domain   1:    1.00729 elapsed seconds
Timing for main: time 2019-11-26_20:25:00 on domain   1:    1.00566 elapsed seconds
Timing for main: time 2019-11-26_20:25:15 on domain   1:    1.00635 elapsed seconds
Timing for main: time 2019-11-26_20:25:30 on domain   1:    1.00722 elapsed seconds
Timing for main: time 2019-11-26_20:25:45 on domain   1:    1.00703 elapsed seconds
Timing for main: time 2019-11-26_20:26:00 on domain   1:    1.49570 elapsed seconds
Timing for main: time 2019-11-26_20:26:15 on domain   1:    1.00934 elapsed seconds
Timing for main: time 2019-11-26_20:26:30 on domain   1:    1.00842 elapsed seconds
Timing for main: time 2019-11-26_20:26:45 on domain   1:    1.00382 elapsed seconds
Timing for main: time 2019-11-26_20:27:00 on domain   1:    1.00595 elapsed seconds
Timing for main: time 2019-11-26_20:27:15 on domain   1:    1.00916 elapsed seconds
Timing for main: time 2019-11-26_20:27:30 on domain   1:    1.00682 elapsed seconds
Timing for main: time 2019-11-26_20:27:45 on domain   1:    1.00540 elapsed seconds
Timing for main: time 2019-11-26_20:28:00 on domain   1:    1.01081 elapsed seconds
Timing for main: time 2019-11-26_20:28:15 on domain   1:    1.00460 elapsed seconds
Timing for main: time 2019-11-26_20:28:30 on domain   1:    1.00863 elapsed seconds
Timing for main: time 2019-11-26_20:28:45 on domain   1:    1.00743 elapsed seconds
Timing for main: time 2019-11-26_20:29:00 on domain   1:    1.00689 elapsed seconds
Timing for main: time 2019-11-26_20:29:15 on domain   1:    1.00775 elapsed seconds
Timing for main: time 2019-11-26_20:29:30 on domain   1:    1.00750 elapsed seconds
Timing for main: time 2019-11-26_20:29:45 on domain   1:    1.00596 elapsed seconds
Timing for main: time 2019-11-26_20:30:00 on domain   1:    1.00560 elapsed seconds
Timing for main: time 2019-11-26_20:30:15 on domain   1:    8.69724 elapsed seconds
Timing for main: time 2019-11-26_20:30:30 on domain   1:    1.00690 elapsed seconds
Timing for main: time 2019-11-26_20:30:45 on domain   1:    1.00791 elapsed seconds
Timing for main: time 2019-11-26_20:31:00 on domain   1:    1.01067 elapsed seconds
Timing for main: time 2019-11-26_20:31:15 on domain   1:    1.00802 elapsed seconds
Timing for main: time 2019-11-26_20:31:30 on domain   1:    1.01432 elapsed seconds
Timing for main: time 2019-11-26_20:31:45 on domain   1:    1.01072 elapsed seconds
Timing for main: time 2019-11-26_20:32:00 on domain   1:    1.00510 elapsed seconds
Timing for main: time 2019-11-26_20:32:15 on domain   1:    1.00677 elapsed seconds
Timing for main: time 2019-11-26_20:32:30 on domain   1:    1.01025 elapsed seconds
Timing for main: time 2019-11-26_20:32:45 on domain   1:    1.00309 elapsed seconds
Timing for main: time 2019-11-26_20:33:00 on domain   1:    1.00707 elapsed seconds
Timing for main: time 2019-11-26_20:33:15 on domain   1:    1.00868 elapsed seconds
Timing for main: time 2019-11-26_20:33:30 on domain   1:    1.01032 elapsed seconds
Timing for main: time 2019-11-26_20:33:45 on domain   1:    1.00894 elapsed seconds
Timing for main: time 2019-11-26_20:34:00 on domain   1:    1.00803 elapsed seconds
Timing for main: time 2019-11-26_20:34:15 on domain   1:    1.00503 elapsed seconds
Timing for main: time 2019-11-26_20:34:30 on domain   1:    1.00835 elapsed seconds
Timing for main: time 2019-11-26_20:34:45 on domain   1:    1.00679 elapsed seconds
Timing for main: time 2019-11-26_20:35:00 on domain   1:    1.00639 elapsed seconds
Timing for main: time 2019-11-26_20:35:15 on domain   1:    1.00691 elapsed seconds
Timing for main: time 2019-11-26_20:35:30 on domain   1:    1.00682 elapsed seconds
Timing for main: time 2019-11-26_20:35:45 on domain   1:    1.00719 elapsed seconds
Timing for main: time 2019-11-26_20:36:00 on domain   1:    1.00715 elapsed seconds
Timing for main: time 2019-11-26_20:36:15 on domain   1:    1.00464 elapsed seconds
Timing for main: time 2019-11-26_20:36:30 on domain   1:    1.01164 elapsed seconds
Timing for main: time 2019-11-26_20:36:45 on domain   1:    1.00577 elapsed seconds
Timing for main: time 2019-11-26_20:37:00 on domain   1:    1.00651 elapsed seconds
Timing for main: time 2019-11-26_20:37:15 on domain   1:    1.00566 elapsed seconds
Timing for main: time 2019-11-26_20:37:30 on domain   1:    1.00695 elapsed seconds
Timing for main: time 2019-11-26_20:37:45 on domain   1:    1.00573 elapsed seconds
Timing for main: time 2019-11-26_20:38:00 on domain   1:    1.00845 elapsed seconds
Timing for main: time 2019-11-26_20:38:15 on domain   1:    1.00571 elapsed seconds
Timing for main: time 2019-11-26_20:38:30 on domain   1:    1.00750 elapsed seconds
Timing for main: time 2019-11-26_20:38:45 on domain   1:    1.00796 elapsed seconds
Timing for main: time 2019-11-26_20:39:00 on domain   1:    1.00817 elapsed seconds
Timing for main: time 2019-11-26_20:39:15 on domain   1:    1.00689 elapsed seconds
Timing for main: time 2019-11-26_20:39:30 on domain   1:    1.00662 elapsed seconds
Timing for main: time 2019-11-26_20:39:45 on domain   1:    1.00666 elapsed seconds
Timing for main: time 2019-11-26_20:40:00 on domain   1:    1.00744 elapsed seconds
Timing for main: time 2019-11-26_20:40:15 on domain   1:    8.24819 elapsed seconds
Timing for main: time 2019-11-26_20:40:30 on domain   1:    1.00568 elapsed seconds
Timing for main: time 2019-11-26_20:40:45 on domain   1:    1.00481 elapsed seconds
Timing for main: time 2019-11-26_20:41:00 on domain   1:    1.00586 elapsed seconds
Timing for main: time 2019-11-26_20:41:15 on domain   1:    1.01201 elapsed seconds
Timing for main: time 2019-11-26_20:41:30 on domain   1:    1.00682 elapsed seconds
Timing for main: time 2019-11-26_20:41:45 on domain   1:    1.00247 elapsed seconds
Timing for main: time 2019-11-26_20:42:00 on domain   1:    1.00597 elapsed seconds
Timing for main: time 2019-11-26_20:42:15 on domain   1:    1.00053 elapsed seconds
Timing for main: time 2019-11-26_20:42:30 on domain   1:    1.00677 elapsed seconds
Timing for main: time 2019-11-26_20:42:45 on domain   1:    1.00877 elapsed seconds
Timing for main: time 2019-11-26_20:43:00 on domain   1:    1.00652 elapsed seconds
Timing for main: time 2019-11-26_20:43:15 on domain   1:    1.00283 elapsed seconds
Timing for main: time 2019-11-26_20:43:30 on domain   1:    1.00333 elapsed seconds
Timing for main: time 2019-11-26_20:43:45 on domain   1:    1.00714 elapsed seconds
Timing for main: time 2019-11-26_20:44:00 on domain   1:    1.00841 elapsed seconds
Timing for main: time 2019-11-26_20:44:15 on domain   1:    1.00328 elapsed seconds
Timing for main: time 2019-11-26_20:44:30 on domain   1:    1.00950 elapsed seconds
Timing for main: time 2019-11-26_20:44:45 on domain   1:    1.00411 elapsed seconds
Timing for main: time 2019-11-26_20:45:00 on domain   1:    1.00673 elapsed seconds
Timing for main: time 2019-11-26_20:45:15 on domain   1:    1.00140 elapsed seconds
Timing for main: time 2019-11-26_20:45:30 on domain   1:    1.00737 elapsed seconds
Timing for main: time 2019-11-26_20:45:45 on domain   1:    1.00342 elapsed seconds
Timing for main: time 2019-11-26_20:46:00 on domain   1:    1.01043 elapsed seconds
Timing for main: time 2019-11-26_20:46:15 on domain   1:    1.10625 elapsed seconds
Timing for main: time 2019-11-26_20:46:30 on domain   1:    1.42840 elapsed seconds
Timing for main: time 2019-11-26_20:46:45 on domain   1:    1.00401 elapsed seconds
Timing for main: time 2019-11-26_20:47:00 on domain   1:    1.00728 elapsed seconds
Timing for main: time 2019-11-26_20:47:15 on domain   1:    1.00585 elapsed seconds
Timing for main: time 2019-11-26_20:47:30 on domain   1:    1.00795 elapsed seconds
Timing for main: time 2019-11-26_20:47:45 on domain   1:    1.00474 elapsed seconds
Timing for main: time 2019-11-26_20:48:00 on domain   1:    1.00687 elapsed seconds
Timing for main: time 2019-11-26_20:48:15 on domain   1:    1.00461 elapsed seconds
Timing for main: time 2019-11-26_20:48:30 on domain   1:    1.00574 elapsed seconds
Timing for main: time 2019-11-26_20:48:45 on domain   1:    1.00606 elapsed seconds
Timing for main: time 2019-11-26_20:49:00 on domain   1:    1.00474 elapsed seconds
Timing for main: time 2019-11-26_20:49:15 on domain   1:    1.00371 elapsed seconds
Timing for main: time 2019-11-26_20:49:30 on domain   1:    1.00632 elapsed seconds
Timing for main: time 2019-11-26_20:49:45 on domain   1:    1.00661 elapsed seconds
Timing for main: time 2019-11-26_20:50:00 on domain   1:    1.00323 elapsed seconds
Timing for main: time 2019-11-26_20:50:15 on domain   1:    8.24349 elapsed seconds
Timing for main: time 2019-11-26_20:50:30 on domain   1:    1.49760 elapsed seconds
Timing for main: time 2019-11-26_20:50:45 on domain   1:    1.00313 elapsed seconds
Timing for main: time 2019-11-26_20:51:00 on domain   1:    1.00717 elapsed seconds
Timing for main: time 2019-11-26_20:51:15 on domain   1:    1.00427 elapsed seconds
Timing for main: time 2019-11-26_20:51:30 on domain   1:    1.00752 elapsed seconds
Timing for main: time 2019-11-26_20:51:45 on domain   1:    1.00386 elapsed seconds
Timing for main: time 2019-11-26_20:52:00 on domain   1:    1.00481 elapsed seconds
Timing for main: time 2019-11-26_20:52:15 on domain   1:    1.00138 elapsed seconds
Timing for main: time 2019-11-26_20:52:30 on domain   1:    1.00523 elapsed seconds
Timing for main: time 2019-11-26_20:52:45 on domain   1:    1.00285 elapsed seconds
Timing for main: time 2019-11-26_20:53:00 on domain   1:    1.00574 elapsed seconds
Timing for main: time 2019-11-26_20:53:15 on domain   1:    1.00725 elapsed seconds
Timing for main: time 2019-11-26_20:53:30 on domain   1:    1.00359 elapsed seconds
Timing for main: time 2019-11-26_20:53:45 on domain   1:    1.00394 elapsed seconds
Timing for main: time 2019-11-26_20:54:00 on domain   1:    1.00284 elapsed seconds
Timing for main: time 2019-11-26_20:54:15 on domain   1:    1.00657 elapsed seconds
Timing for main: time 2019-11-26_20:54:30 on domain   1:    1.00405 elapsed seconds
Timing for main: time 2019-11-26_20:54:45 on domain   1:    1.00434 elapsed seconds
Timing for main: time 2019-11-26_20:55:00 on domain   1:    1.00394 elapsed seconds
Timing for main: time 2019-11-26_20:55:15 on domain   1:    1.00010 elapsed seconds
Timing for main: time 2019-11-26_20:55:30 on domain   1:    1.00508 elapsed seconds
Timing for main: time 2019-11-26_20:55:45 on domain   1:    1.00185 elapsed seconds
Timing for main: time 2019-11-26_20:56:00 on domain   1:    1.00444 elapsed seconds
Timing for main: time 2019-11-26_20:56:15 on domain   1:    1.00368 elapsed seconds
Timing for main: time 2019-11-26_20:56:30 on domain   1:    1.00415 elapsed seconds
Timing for main: time 2019-11-26_20:56:45 on domain   1:    1.00098 elapsed seconds
Timing for main: time 2019-11-26_20:57:00 on domain   1:    1.38797 elapsed seconds
Timing for main: time 2019-11-26_20:57:15 on domain   1:    1.59959 elapsed seconds
Timing for main: time 2019-11-26_20:57:30 on domain   1:    1.00237 elapsed seconds
Timing for main: time 2019-11-26_20:57:45 on domain   1:    1.00665 elapsed seconds
Timing for main: time 2019-11-26_20:58:00 on domain   1:    1.00366 elapsed seconds
Timing for main: time 2019-11-26_20:58:15 on domain   1:    1.00581 elapsed seconds
Timing for main: time 2019-11-26_20:58:30 on domain   1:    1.00329 elapsed seconds
Timing for main: time 2019-11-26_20:58:45 on domain   1:    1.00582 elapsed seconds
Timing for main: time 2019-11-26_20:59:00 on domain   1:    1.00711 elapsed seconds
Timing for main: time 2019-11-26_20:59:15 on domain   1:    1.00655 elapsed seconds
Timing for main: time 2019-11-26_20:59:30 on domain   1:    1.00068 elapsed seconds
Timing for main: time 2019-11-26_20:59:45 on domain   1:    1.00623 elapsed seconds
Timing for main: time 2019-11-26_21:00:00 on domain   1:    1.00624 elapsed seconds
 mediation_integrate.G        1249 DATASET=HISTORY
 mediation_integrate.G        1250  grid%id            1  grid%oid            2
Timing for Writing wrfout_d01_2019-11-26_21:00:00 for domain        1:    3.33218 elapsed seconds
 Input data is acceptable to use: wrfbdy_d01
Timing for processing lateral boundary for domain        1:    0.72062 elapsed seconds
Timing for main: time 2019-11-26_21:00:15 on domain   1:   12.26120 elapsed seconds
Timing for main: time 2019-11-26_21:00:30 on domain   1:    1.01156 elapsed seconds
Timing for main: time 2019-11-26_21:00:45 on domain   1:    0.99853 elapsed seconds
Timing for main: time 2019-11-26_21:01:00 on domain   1:    1.01033 elapsed seconds
Timing for main: time 2019-11-26_21:01:15 on domain   1:    1.00242 elapsed seconds
Timing for main: time 2019-11-26_21:01:30 on domain   1:    1.00278 elapsed seconds
Timing for main: time 2019-11-26_21:01:45 on domain   1:    1.00407 elapsed seconds
Timing for main: time 2019-11-26_21:02:00 on domain   1:    1.01102 elapsed seconds
Timing for main: time 2019-11-26_21:02:15 on domain   1:    1.00813 elapsed seconds
Timing for main: time 2019-11-26_21:02:30 on domain   1:    1.00193 elapsed seconds
Timing for main: time 2019-11-26_21:02:45 on domain   1:    1.00903 elapsed seconds
Timing for main: time 2019-11-26_21:03:00 on domain   1:    1.00477 elapsed seconds
Timing for main: time 2019-11-26_21:03:15 on domain   1:    1.00676 elapsed seconds
Timing for main: time 2019-11-26_21:03:30 on domain   1:    1.00600 elapsed seconds
Timing for main: time 2019-11-26_21:03:45 on domain   1:    1.00729 elapsed seconds
Timing for main: time 2019-11-26_21:04:00 on domain   1:    1.00558 elapsed seconds
Timing for main: time 2019-11-26_21:04:15 on domain   1:    1.00777 elapsed seconds
Timing for main: time 2019-11-26_21:04:30 on domain   1:    1.00452 elapsed seconds
Timing for main: time 2019-11-26_21:04:45 on domain   1:    1.00592 elapsed seconds
Timing for main: time 2019-11-26_21:05:00 on domain   1:    1.01219 elapsed seconds
Timing for main: time 2019-11-26_21:05:15 on domain   1:    1.00357 elapsed seconds
Timing for main: time 2019-11-26_21:05:30 on domain   1:    1.01116 elapsed seconds
Timing for main: time 2019-11-26_21:05:45 on domain   1:    1.00452 elapsed seconds
Timing for main: time 2019-11-26_21:06:00 on domain   1:    1.00075 elapsed seconds
Timing for main: time 2019-11-26_21:06:15 on domain   1:    1.00927 elapsed seconds
Timing for main: time 2019-11-26_21:06:30 on domain   1:    1.00318 elapsed seconds
Timing for main: time 2019-11-26_21:06:45 on domain   1:    1.00803 elapsed seconds
Timing for main: time 2019-11-26_21:07:00 on domain   1:    1.00769 elapsed seconds
Timing for main: time 2019-11-26_21:07:15 on domain   1:    1.00431 elapsed seconds
Timing for main: time 2019-11-26_21:07:30 on domain   1:    1.00402 elapsed seconds
Timing for main: time 2019-11-26_21:07:45 on domain   1:    1.00411 elapsed seconds
Timing for main: time 2019-11-26_21:08:00 on domain   1:    1.00319 elapsed seconds
Timing for main: time 2019-11-26_21:08:15 on domain   1:    1.00040 elapsed seconds
Timing for main: time 2019-11-26_21:08:30 on domain   1:    1.00368 elapsed seconds
Timing for main: time 2019-11-26_21:08:45 on domain   1:    1.00595 elapsed seconds
Timing for main: time 2019-11-26_21:09:00 on domain   1:    1.00923 elapsed seconds
Timing for main: time 2019-11-26_21:09:15 on domain   1:    1.00107 elapsed seconds
Timing for main: time 2019-11-26_21:09:30 on domain   1:    1.00880 elapsed seconds
Timing for main: time 2019-11-26_21:09:45 on domain   1:    1.00255 elapsed seconds
Timing for main: time 2019-11-26_21:10:00 on domain   1:    1.00484 elapsed seconds
Timing for main: time 2019-11-26_21:10:15 on domain   1:    8.30365 elapsed seconds
Timing for main: time 2019-11-26_21:10:30 on domain   1:    1.00088 elapsed seconds
Timing for main: time 2019-11-26_21:10:45 on domain   1:    1.00086 elapsed seconds
Timing for main: time 2019-11-26_21:11:00 on domain   1:    1.00381 elapsed seconds
Timing for main: time 2019-11-26_21:11:15 on domain   1:    1.00423 elapsed seconds
Timing for main: time 2019-11-26_21:11:30 on domain   1:    1.00643 elapsed seconds
Timing for main: time 2019-11-26_21:11:45 on domain   1:    1.00259 elapsed seconds
Timing for main: time 2019-11-26_21:12:00 on domain   1:    1.00574 elapsed seconds
Timing for main: time 2019-11-26_21:12:15 on domain   1:    1.00171 elapsed seconds
Timing for main: time 2019-11-26_21:12:30 on domain   1:    1.00691 elapsed seconds
Timing for main: time 2019-11-26_21:12:45 on domain   1:    1.00424 elapsed seconds
Timing for main: time 2019-11-26_21:13:00 on domain   1:    1.00397 elapsed seconds
Timing for main: time 2019-11-26_21:13:15 on domain   1:    1.00386 elapsed seconds
Timing for main: time 2019-11-26_21:13:30 on domain   1:    1.00310 elapsed seconds
Timing for main: time 2019-11-26_21:13:45 on domain   1:    1.00047 elapsed seconds
Timing for main: time 2019-11-26_21:14:00 on domain   1:    1.00240 elapsed seconds
Timing for main: time 2019-11-26_21:14:15 on domain   1:    1.00207 elapsed seconds
Timing for main: time 2019-11-26_21:14:30 on domain   1:    1.00227 elapsed seconds
Timing for main: time 2019-11-26_21:14:45 on domain   1:    1.00452 elapsed seconds
Timing for main: time 2019-11-26_21:15:00 on domain   1:    1.00048 elapsed seconds
Timing for main: time 2019-11-26_21:15:15 on domain   1:    1.00369 elapsed seconds
Timing for main: time 2019-11-26_21:15:30 on domain   1:    1.00053 elapsed seconds
Timing for main: time 2019-11-26_21:15:45 on domain   1:    1.00131 elapsed seconds
Timing for main: time 2019-11-26_21:16:00 on domain   1:    1.00368 elapsed seconds
Timing for main: time 2019-11-26_21:16:15 on domain   1:    0.99872 elapsed seconds
Timing for main: time 2019-11-26_21:16:30 on domain   1:    1.00138 elapsed seconds
Timing for main: time 2019-11-26_21:16:45 on domain   1:    1.52213 elapsed seconds
Timing for main: time 2019-11-26_21:17:00 on domain   1:    1.00237 elapsed seconds
Timing for main: time 2019-11-26_21:17:15 on domain   1:    1.00591 elapsed seconds
Timing for main: time 2019-11-26_21:17:30 on domain   1:    1.00042 elapsed seconds
Timing for main: time 2019-11-26_21:17:45 on domain   1:    0.99921 elapsed seconds
Timing for main: time 2019-11-26_21:18:00 on domain   1:    1.00288 elapsed seconds
Timing for main: time 2019-11-26_21:18:15 on domain   1:    0.99803 elapsed seconds
Timing for main: time 2019-11-26_21:18:30 on domain   1:    1.00153 elapsed seconds
Timing for main: time 2019-11-26_21:18:45 on domain   1:    0.99868 elapsed seconds
Timing for main: time 2019-11-26_21:19:00 on domain   1:    0.99946 elapsed seconds
Timing for main: time 2019-11-26_21:19:15 on domain   1:    1.00240 elapsed seconds
Timing for main: time 2019-11-26_21:19:30 on domain   1:    1.00195 elapsed seconds
Timing for main: time 2019-11-26_21:19:45 on domain   1:    1.00207 elapsed seconds
Timing for main: time 2019-11-26_21:20:00 on domain   1:    1.00040 elapsed seconds
Timing for main: time 2019-11-26_21:20:15 on domain   1:    8.20007 elapsed seconds
Timing for main: time 2019-11-26_21:20:30 on domain   1:    1.00625 elapsed seconds
Timing for main: time 2019-11-26_21:20:45 on domain   1:    0.99830 elapsed seconds
Timing for main: time 2019-11-26_21:21:00 on domain   1:    1.00347 elapsed seconds
Timing for main: time 2019-11-26_21:21:15 on domain   1:    1.01211 elapsed seconds
Timing for main: time 2019-11-26_21:21:30 on domain   1:    1.99734 elapsed seconds
Timing for main: time 2019-11-26_21:21:45 on domain   1:    1.00390 elapsed seconds
Timing for main: time 2019-11-26_21:22:00 on domain   1:    1.00134 elapsed seconds
Timing for main: time 2019-11-26_21:22:15 on domain   1:    1.00528 elapsed seconds
Timing for main: time 2019-11-26_21:22:30 on domain   1:    0.99809 elapsed seconds
Timing for main: time 2019-11-26_21:22:45 on domain   1:    1.00420 elapsed seconds
Timing for main: time 2019-11-26_21:23:00 on domain   1:    1.00385 elapsed seconds
Timing for main: time 2019-11-26_21:23:15 on domain   1:    1.00381 elapsed seconds
Timing for main: time 2019-11-26_21:23:30 on domain   1:    1.00550 elapsed seconds
Timing for main: time 2019-11-26_21:23:45 on domain   1:    1.00398 elapsed seconds
Timing for main: time 2019-11-26_21:24:00 on domain   1:    1.00231 elapsed seconds
Timing for main: time 2019-11-26_21:24:15 on domain   1:    1.00048 elapsed seconds
Timing for main: time 2019-11-26_21:24:30 on domain   1:    1.00264 elapsed seconds
Timing for main: time 2019-11-26_21:24:45 on domain   1:    1.00362 elapsed seconds
Timing for main: time 2019-11-26_21:25:00 on domain   1:    1.01081 elapsed seconds
Timing for main: time 2019-11-26_21:25:15 on domain   1:    1.00180 elapsed seconds
Timing for main: time 2019-11-26_21:25:30 on domain   1:    1.00439 elapsed seconds
Timing for main: time 2019-11-26_21:25:45 on domain   1:    1.00864 elapsed seconds
Timing for main: time 2019-11-26_21:26:00 on domain   1:    1.00215 elapsed seconds
Timing for main: time 2019-11-26_21:26:15 on domain   1:    1.00944 elapsed seconds
Timing for main: time 2019-11-26_21:26:30 on domain   1:    1.00484 elapsed seconds
Timing for main: time 2019-11-26_21:26:45 on domain   1:    1.00463 elapsed seconds
Timing for main: time 2019-11-26_21:27:00 on domain   1:    1.00476 elapsed seconds
Timing for main: time 2019-11-26_21:27:15 on domain   1:    1.00410 elapsed seconds
Timing for main: time 2019-11-26_21:27:30 on domain   1:    1.00308 elapsed seconds
Timing for main: time 2019-11-26_21:27:45 on domain   1:    1.00497 elapsed seconds
Timing for main: time 2019-11-26_21:28:00 on domain   1:    1.00089 elapsed seconds
Timing for main: time 2019-11-26_21:28:15 on domain   1:    1.00446 elapsed seconds
Timing for main: time 2019-11-26_21:28:30 on domain   1:    1.01064 elapsed seconds
Timing for main: time 2019-11-26_21:28:45 on domain   1:    1.00519 elapsed seconds
Timing for main: time 2019-11-26_21:29:00 on domain   1:    1.00485 elapsed seconds
Timing for main: time 2019-11-26_21:29:15 on domain   1:    1.01008 elapsed seconds
Timing for main: time 2019-11-26_21:29:30 on domain   1:    1.00086 elapsed seconds
Timing for main: time 2019-11-26_21:29:45 on domain   1:    1.00973 elapsed seconds
Timing for main: time 2019-11-26_21:30:00 on domain   1:    1.00249 elapsed seconds
Timing for main: time 2019-11-26_21:30:15 on domain   1:    8.16921 elapsed seconds
Timing for main: time 2019-11-26_21:30:30 on domain   1:    1.00489 elapsed seconds
Timing for main: time 2019-11-26_21:30:45 on domain   1:    1.00496 elapsed seconds
Timing for main: time 2019-11-26_21:31:00 on domain   1:    1.01139 elapsed seconds
Timing for main: time 2019-11-26_21:31:15 on domain   1:    1.01280 elapsed seconds
Timing for main: time 2019-11-26_21:31:30 on domain   1:    1.00944 elapsed seconds
Timing for main: time 2019-11-26_21:31:45 on domain   1:    0.99984 elapsed seconds
Timing for main: time 2019-11-26_21:32:00 on domain   1:    1.01042 elapsed seconds
Timing for main: time 2019-11-26_21:32:15 on domain   1:    1.00634 elapsed seconds
Timing for main: time 2019-11-26_21:32:30 on domain   1:    1.01011 elapsed seconds
Timing for main: time 2019-11-26_21:32:45 on domain   1:    1.00291 elapsed seconds
Timing for main: time 2019-11-26_21:33:00 on domain   1:    1.01656 elapsed seconds
Timing for main: time 2019-11-26_21:33:15 on domain   1:    1.00486 elapsed seconds
Timing for main: time 2019-11-26_21:33:30 on domain   1:    1.00328 elapsed seconds
Timing for main: time 2019-11-26_21:33:45 on domain   1:    1.01405 elapsed seconds
Timing for main: time 2019-11-26_21:34:00 on domain   1:    1.00638 elapsed seconds
Timing for main: time 2019-11-26_21:34:15 on domain   1:    1.00808 elapsed seconds
Timing for main: time 2019-11-26_21:34:30 on domain   1:    1.00533 elapsed seconds
Timing for main: time 2019-11-26_21:34:45 on domain   1:    1.00626 elapsed seconds
Timing for main: time 2019-11-26_21:35:00 on domain   1:    1.01751 elapsed seconds
Timing for main: time 2019-11-26_21:35:15 on domain   1:    1.00491 elapsed seconds
Timing for main: time 2019-11-26_21:35:30 on domain   1:    1.01323 elapsed seconds
Timing for main: time 2019-11-26_21:35:45 on domain   1:    1.00446 elapsed seconds
Timing for main: time 2019-11-26_21:36:00 on domain   1:    1.01804 elapsed seconds
Timing for main: time 2019-11-26_21:36:15 on domain   1:    1.00973 elapsed seconds
Timing for main: time 2019-11-26_21:36:30 on domain   1:    1.56088 elapsed seconds
Timing for main: time 2019-11-26_21:36:45 on domain   1:    1.00267 elapsed seconds
Timing for main: time 2019-11-26_21:37:00 on domain   1:    1.00523 elapsed seconds
Timing for main: time 2019-11-26_21:37:15 on domain   1:    1.01449 elapsed seconds
Timing for main: time 2019-11-26_21:37:30 on domain   1:    1.01008 elapsed seconds
Timing for main: time 2019-11-26_21:37:45 on domain   1:    1.00665 elapsed seconds
Timing for main: time 2019-11-26_21:38:00 on domain   1:    1.01589 elapsed seconds
Timing for main: time 2019-11-26_21:38:15 on domain   1:    1.00868 elapsed seconds
Timing for main: time 2019-11-26_21:38:30 on domain   1:    1.01146 elapsed seconds
Timing for main: time 2019-11-26_21:38:45 on domain   1:    1.00844 elapsed seconds
Timing for main: time 2019-11-26_21:39:00 on domain   1:    1.00519 elapsed seconds
Timing for main: time 2019-11-26_21:39:15 on domain   1:    1.00761 elapsed seconds
Timing for main: time 2019-11-26_21:39:30 on domain   1:    1.01647 elapsed seconds
Timing for main: time 2019-11-26_21:39:45 on domain   1:    1.00620 elapsed seconds
Timing for main: time 2019-11-26_21:40:00 on domain   1:    1.00772 elapsed seconds
Timing for main: time 2019-11-26_21:40:15 on domain   1:    8.06112 elapsed seconds
Timing for main: time 2019-11-26_21:40:30 on domain   1:    1.01300 elapsed seconds
Timing for main: time 2019-11-26_21:40:45 on domain   1:    1.00959 elapsed seconds
Timing for main: time 2019-11-26_21:41:00 on domain   1:    1.49925 elapsed seconds
Timing for main: time 2019-11-26_21:41:15 on domain   1:    1.00999 elapsed seconds
Timing for main: time 2019-11-26_21:41:30 on domain   1:    1.00513 elapsed seconds
Timing for main: time 2019-11-26_21:41:45 on domain   1:    1.00888 elapsed seconds
Timing for main: time 2019-11-26_21:42:00 on domain   1:    1.00770 elapsed seconds
Timing for main: time 2019-11-26_21:42:15 on domain   1:    1.00766 elapsed seconds
Timing for main: time 2019-11-26_21:42:30 on domain   1:    1.00831 elapsed seconds
Timing for main: time 2019-11-26_21:42:45 on domain   1:    1.01073 elapsed seconds
Timing for main: time 2019-11-26_21:43:00 on domain   1:    1.00847 elapsed seconds
Timing for main: time 2019-11-26_21:43:15 on domain   1:    1.02195 elapsed seconds
Timing for main: time 2019-11-26_21:43:30 on domain   1:    1.00685 elapsed seconds
Timing for main: time 2019-11-26_21:43:45 on domain   1:    1.00868 elapsed seconds
Timing for main: time 2019-11-26_21:44:00 on domain   1:    1.00990 elapsed seconds
[...]
Timing for main: time 2019-11-26_23:01:30 on domain   1:    1.03597 elapsed seconds
Timing for main: time 2019-11-26_23:01:45 on domain   1:    1.03739 elapsed seconds
Timing for main: time 2019-11-26_23:02:00 on domain   1:    1.02922 elapsed seconds
Timing for main: time 2019-11-26_23:02:15 on domain   1:    1.03768 elapsed seconds
Timing for main: time 2019-11-26_23:02:30 on domain   1:    1.03845 elapsed seconds
Timing for main: time 2019-11-26_23:02:45 on domain   1:    1.02866 elapsed seconds
Timing for main: time 2019-11-26_23:03:00 on domain   1:    1.04863 elapsed seconds
Timing for main: time 2019-11-26_23:03:15 on domain   1:    1.02715 elapsed seconds
Timing for main: time 2019-11-26_23:03:30 on domain   1:    1.03078 elapsed seconds
Timing for main: time 2019-11-26_23:03:45 on domain   1:    1.03424 elapsed seconds
Timing for main: time 2019-11-26_23:04:00 on domain   1:    1.02638 elapsed seconds
Timing for main: time 2019-11-26_23:04:15 on domain   1:    1.03513 elapsed seconds
Timing for main: time 2019-11-26_23:04:30 on domain   1:    1.03425 elapsed seconds
Timing for main: time 2019-11-26_23:04:45 on domain   1:    1.03734 elapsed seconds
Timing for main: time 2019-11-26_23:05:00 on domain   1:    1.02885 elapsed seconds
Timing for main: time 2019-11-26_23:05:15 on domain   1:    1.04715 elapsed seconds
Timing for main: time 2019-11-26_23:05:30 on domain   1:    1.03058 elapsed seconds
Timing for main: time 2019-11-26_23:05:45 on domain   1:    1.04382 elapsed seconds
Timing for main: time 2019-11-26_23:06:00 on domain   1:    1.03476 elapsed seconds
Timing for main: time 2019-11-26_23:06:15 on domain   1:    1.04070 elapsed seconds
Timing for main: time 2019-11-26_23:06:30 on domain   1:    1.03052 elapsed seconds
Timing for main: time 2019-11-26_23:06:45 on domain   1:    1.04551 elapsed seconds
Timing for main: time 2019-11-26_23:07:00 on domain   1:    1.02850 elapsed seconds
Timing for main: time 2019-11-26_23:07:15 on domain   1:    1.03841 elapsed seconds
Timing for main: time 2019-11-26_23:07:30 on domain   1:    1.03537 elapsed seconds
Timing for main: time 2019-11-26_23:07:45 on domain   1:    1.03857 elapsed seconds
Timing for main: time 2019-11-26_23:08:00 on domain   1:    1.03233 elapsed seconds
Timing for main: time 2019-11-26_23:08:15 on domain   1:    1.03793 elapsed seconds
Timing for main: time 2019-11-26_23:08:30 on domain   1:    1.03185 elapsed seconds
Timing for main: time 2019-11-26_23:08:45 on domain   1:    1.03375 elapsed seconds
Timing for main: time 2019-11-26_23:09:00 on domain   1:    1.04298 elapsed seconds
Timing for main: time 2019-11-26_23:09:15 on domain   1:    1.02910 elapsed seconds
Timing for main: time 2019-11-26_23:09:30 on domain   1:    1.03567 elapsed seconds
Timing for main: time 2019-11-26_23:09:45 on domain   1:    1.03950 elapsed seconds
Timing for main: time 2019-11-26_23:10:00 on domain   1:    1.03195 elapsed seconds
Timing for main: time 2019-11-26_23:10:15 on domain   1:    8.09604 elapsed seconds
Timing for main: time 2019-11-26_23:10:30 on domain   1:    1.02745 elapsed seconds
Timing for main: time 2019-11-26_23:10:45 on domain   1:    1.03975 elapsed seconds
Timing for main: time 2019-11-26_23:11:00 on domain   1:    1.03312 elapsed seconds
Timing for main: time 2019-11-26_23:11:15 on domain   1:    1.03319 elapsed seconds
Timing for main: time 2019-11-26_23:11:30 on domain   1:    1.03138 elapsed seconds
Timing for main: time 2019-11-26_23:11:45 on domain   1:    1.03150 elapsed seconds
Timing for main: time 2019-11-26_23:12:00 on domain   1:    1.52839 elapsed seconds
Timing for main: time 2019-11-26_23:12:15 on domain   1:    1.04035 elapsed seconds
Timing for main: time 2019-11-26_23:12:30 on domain   1:    1.03097 elapsed seconds
Timing for main: time 2019-11-26_23:12:45 on domain   1:    1.03532 elapsed seconds
Timing for main: time 2019-11-26_23:13:00 on domain   1:    1.03359 elapsed seconds
Timing for main: time 2019-11-26_23:13:15 on domain   1:    1.03244 elapsed seconds
Timing for main: time 2019-11-26_23:13:30 on domain   1:    1.03719 elapsed seconds
Timing for main: time 2019-11-26_23:13:45 on domain   1:    1.02928 elapsed seconds
Timing for main: time 2019-11-26_23:14:00 on domain   1:    1.03942 elapsed seconds
Timing for main: time 2019-11-26_23:14:15 on domain   1:    1.03073 elapsed seconds
Timing for main: time 2019-11-26_23:14:30 on domain   1:    1.03209 elapsed seconds
Timing for main: time 2019-11-26_23:14:45 on domain   1:    1.03500 elapsed seconds
Timing for main: time 2019-11-26_23:15:00 on domain   1:    1.03125 elapsed seconds
Timing for main: time 2019-11-26_23:15:15 on domain   1:    1.03356 elapsed seconds
Timing for main: time 2019-11-26_23:15:30 on domain   1:    1.03834 elapsed seconds
Timing for main: time 2019-11-26_23:15:45 on domain   1:    1.03061 elapsed seconds
Timing for main: time 2019-11-26_23:16:00 on domain   1:    1.03123 elapsed seconds
Timing for main: time 2019-11-26_23:16:15 on domain   1:    1.04039 elapsed seconds
Timing for main: time 2019-11-26_23:16:30 on domain   1:    1.03436 elapsed seconds
Timing for main: time 2019-11-26_23:16:45 on domain   1:    1.03189 elapsed seconds
Timing for main: time 2019-11-26_23:17:00 on domain   1:    1.03295 elapsed seconds
Timing for main: time 2019-11-26_23:17:15 on domain   1:    1.02965 elapsed seconds
Timing for main: time 2019-11-26_23:17:30 on domain   1:    1.03467 elapsed seconds
Timing for main: time 2019-11-26_23:17:45 on domain   1:    1.03080 elapsed seconds
Timing for main: time 2019-11-26_23:18:00 on domain   1:    1.03038 elapsed seconds
Timing for main: time 2019-11-26_23:18:15 on domain   1:    1.04525 elapsed seconds
Timing for main: time 2019-11-26_23:18:30 on domain   1:    1.60261 elapsed seconds
Timing for main: time 2019-11-26_23:18:45 on domain   1:    1.03120 elapsed seconds
Timing for main: time 2019-11-26_23:19:00 on domain   1:    1.03023 elapsed seconds
Timing for main: time 2019-11-26_23:19:15 on domain   1:    1.03608 elapsed seconds
Timing for main: time 2019-11-26_23:19:30 on domain   1:    1.03416 elapsed seconds
Timing for main: time 2019-11-26_23:19:45 on domain   1:    1.03181 elapsed seconds
Timing for main: time 2019-11-26_23:20:00 on domain   1:    1.03998 elapsed seconds
Timing for main: time 2019-11-26_23:20:15 on domain   1:    7.96293 elapsed seconds
Timing for main: time 2019-11-26_23:20:30 on domain   1:    1.03027 elapsed seconds
Timing for main: time 2019-11-26_23:20:45 on domain   1:    1.03202 elapsed seconds
Timing for main: time 2019-11-26_23:21:00 on domain   1:    1.03688 elapsed seconds
Timing for main: time 2019-11-26_23:21:15 on domain   1:    1.03184 elapsed seconds
Timing for main: time 2019-11-26_23:21:30 on domain   1:    1.04050 elapsed seconds
Timing for main: time 2019-11-26_23:21:45 on domain   1:    1.03172 elapsed seconds
Timing for main: time 2019-11-26_23:22:00 on domain   1:    1.04160 elapsed seconds
Timing for main: time 2019-11-26_23:22:15 on domain   1:    1.03468 elapsed seconds
Timing for main: time 2019-11-26_23:22:30 on domain   1:    1.04351 elapsed seconds
Timing for main: time 2019-11-26_23:22:45 on domain   1:    1.03705 elapsed seconds
Timing for main: time 2019-11-26_23:23:00 on domain   1:    1.04273 elapsed seconds
Timing for main: time 2019-11-26_23:23:15 on domain   1:    1.03452 elapsed seconds
Timing for main: time 2019-11-26_23:23:30 on domain   1:    1.03301 elapsed seconds
Timing for main: time 2019-11-26_23:23:45 on domain   1:    1.03672 elapsed seconds
Timing for main: time 2019-11-26_23:24:00 on domain   1:    1.03329 elapsed seconds
Timing for main: time 2019-11-26_23:24:15 on domain   1:    1.04303 elapsed seconds
Timing for main: time 2019-11-26_23:24:30 on domain   1:    1.02824 elapsed seconds
Timing for main: time 2019-11-26_23:24:45 on domain   1:    1.03700 elapsed seconds
Timing for main: time 2019-11-26_23:25:00 on domain   1:    1.03195 elapsed seconds
Timing for main: time 2019-11-26_23:25:15 on domain   1:    1.04672 elapsed seconds
Timing for main: time 2019-11-26_23:25:30 on domain   1:    1.03487 elapsed seconds
Timing for main: time 2019-11-26_23:25:45 on domain   1:    1.04671 elapsed seconds
Timing for main: time 2019-11-26_23:26:00 on domain   1:    1.03706 elapsed seconds
Timing for main: time 2019-11-26_23:26:15 on domain   1:    1.06671 elapsed seconds
Timing for main: time 2019-11-26_23:26:30 on domain   1:    2.01212 elapsed seconds
Timing for main: time 2019-11-26_23:26:45 on domain   1:    1.04859 elapsed seconds
Timing for main: time 2019-11-26_23:27:00 on domain   1:    1.03686 elapsed seconds
Timing for main: time 2019-11-26_23:27:15 on domain   1:    1.03503 elapsed seconds
Timing for main: time 2019-11-26_23:27:30 on domain   1:    1.03813 elapsed seconds
Timing for main: time 2019-11-26_23:27:45 on domain   1:    1.03510 elapsed seconds
Timing for main: time 2019-11-26_23:28:00 on domain   1:    1.05051 elapsed seconds
Timing for main: time 2019-11-26_23:28:15 on domain   1:    1.03205 elapsed seconds
Timing for main: time 2019-11-26_23:28:30 on domain   1:    1.05192 elapsed seconds
Timing for main: time 2019-11-26_23:28:45 on domain   1:    1.03034 elapsed seconds
Timing for main: time 2019-11-26_23:29:00 on domain   1:    1.04473 elapsed seconds
Timing for main: time 2019-11-26_23:29:15 on domain   1:    1.03339 elapsed seconds
Timing for main: time 2019-11-26_23:29:30 on domain   1:    1.03716 elapsed seconds
Timing for main: time 2019-11-26_23:29:45 on domain   1:    1.03563 elapsed seconds
Timing for main: time 2019-11-26_23:30:00 on domain   1:    1.05040 elapsed seconds
Timing for main: time 2019-11-26_23:30:15 on domain   1:    7.79502 elapsed seconds
Timing for main: time 2019-11-26_23:30:30 on domain   1:    1.03159 elapsed seconds
Timing for main: time 2019-11-26_23:30:45 on domain   1:    1.03668 elapsed seconds
Timing for main: time 2019-11-26_23:31:00 on domain   1:    1.03110 elapsed seconds
Timing for main: time 2019-11-26_23:31:15 on domain   1:    1.04796 elapsed seconds
Timing for main: time 2019-11-26_23:31:30 on domain   1:    1.03422 elapsed seconds
Timing for main: time 2019-11-26_23:31:45 on domain   1:    1.04418 elapsed seconds
Timing for main: time 2019-11-26_23:32:00 on domain   1:    1.03505 elapsed seconds
Timing for main: time 2019-11-26_23:32:15 on domain   1:    1.03401 elapsed seconds
Timing for main: time 2019-11-26_23:32:30 on domain   1:    1.04399 elapsed seconds
Timing for main: time 2019-11-26_23:32:45 on domain   1:    1.03354 elapsed seconds
Timing for main: time 2019-11-26_23:33:00 on domain   1:    1.04775 elapsed seconds
Timing for main: time 2019-11-26_23:33:15 on domain   1:    1.03306 elapsed seconds
Timing for main: time 2019-11-26_23:33:30 on domain   1:    1.04246 elapsed seconds
Timing for main: time 2019-11-26_23:33:45 on domain   1:    1.03680 elapsed seconds
Timing for main: time 2019-11-26_23:34:00 on domain   1:    1.03552 elapsed seconds
Timing for main: time 2019-11-26_23:34:15 on domain   1:    1.03615 elapsed seconds
Timing for main: time 2019-11-26_23:34:30 on domain   1:    1.03296 elapsed seconds
Timing for main: time 2019-11-26_23:34:45 on domain   1:    1.03924 elapsed seconds
Timing for main: time 2019-11-26_23:35:00 on domain   1:    1.03590 elapsed seconds
Timing for main: time 2019-11-26_23:35:15 on domain   1:    1.03370 elapsed seconds
Timing for main: time 2019-11-26_23:35:30 on domain   1:    1.03866 elapsed seconds
Timing for main: time 2019-11-26_23:35:45 on domain   1:    1.03546 elapsed seconds
Timing for main: time 2019-11-26_23:36:00 on domain   1:    1.04244 elapsed seconds
Timing for main: time 2019-11-26_23:36:15 on domain   1:    1.03464 elapsed seconds
Timing for main: time 2019-11-26_23:36:30 on domain   1:    1.04312 elapsed seconds
Timing for main: time 2019-11-26_23:36:45 on domain   1:    1.03755 elapsed seconds
Timing for main: time 2019-11-26_23:37:00 on domain   1:    1.03399 elapsed seconds
Timing for main: time 2019-11-26_23:37:15 on domain   1:    1.04596 elapsed seconds
Timing for main: time 2019-11-26_23:37:30 on domain   1:    1.30201 elapsed seconds
Timing for main: time 2019-11-26_23:37:45 on domain   1:    1.08353 elapsed seconds
Timing for main: time 2019-11-26_23:38:00 on domain   1:    1.04790 elapsed seconds
Timing for main: time 2019-11-26_23:38:15 on domain   1:    1.03429 elapsed seconds
Timing for main: time 2019-11-26_23:38:30 on domain   1:    1.03976 elapsed seconds
Timing for main: time 2019-11-26_23:38:45 on domain   1:    1.03656 elapsed seconds
Timing for main: time 2019-11-26_23:39:00 on domain   1:    1.04518 elapsed seconds
Timing for main: time 2019-11-26_23:39:15 on domain   1:    1.04841 elapsed seconds
Timing for main: time 2019-11-26_23:39:30 on domain   1:    1.03648 elapsed seconds
Timing for main: time 2019-11-26_23:39:45 on domain   1:    1.03779 elapsed seconds
Timing for main: time 2019-11-26_23:40:00 on domain   1:    1.03892 elapsed seconds
Timing for main: time 2019-11-26_23:40:15 on domain   1:    7.59321 elapsed seconds
Timing for main: time 2019-11-26_23:40:30 on domain   1:    1.03709 elapsed seconds
Timing for main: time 2019-11-26_23:40:45 on domain   1:    1.03460 elapsed seconds
Timing for main: time 2019-11-26_23:41:00 on domain   1:    1.05677 elapsed seconds
Timing for main: time 2019-11-26_23:41:15 on domain   1:    1.03426 elapsed seconds
Timing for main: time 2019-11-26_23:41:30 on domain   1:    1.04300 elapsed seconds
Timing for main: time 2019-11-26_23:41:45 on domain   1:    1.03672 elapsed seconds
Timing for main: time 2019-11-26_23:42:00 on domain   1:    1.03945 elapsed seconds
Timing for main: time 2019-11-26_23:42:15 on domain   1:    1.05139 elapsed seconds
Timing for main: time 2019-11-26_23:42:30 on domain   1:    1.03840 elapsed seconds
Timing for main: time 2019-11-26_23:42:45 on domain   1:    1.04157 elapsed seconds
Timing for main: time 2019-11-26_23:43:00 on domain   1:    1.48533 elapsed seconds
Timing for main: time 2019-11-26_23:43:15 on domain   1:    1.04575 elapsed seconds
Timing for main: time 2019-11-26_23:43:30 on domain   1:    1.03958 elapsed seconds
Timing for main: time 2019-11-26_23:43:45 on domain   1:    1.04937 elapsed seconds
Timing for main: time 2019-11-26_23:44:00 on domain   1:    1.03854 elapsed seconds
Timing for main: time 2019-11-26_23:44:15 on domain   1:    1.04172 elapsed seconds
Timing for main: time 2019-11-26_23:44:30 on domain   1:    1.04128 elapsed seconds
Timing for main: time 2019-11-26_23:44:45 on domain   1:    1.04303 elapsed seconds
Timing for main: time 2019-11-26_23:45:00 on domain   1:    1.03949 elapsed seconds
Timing for main: time 2019-11-26_23:45:15 on domain   1:    1.05214 elapsed seconds
Timing for main: time 2019-11-26_23:45:30 on domain   1:    1.04081 elapsed seconds
Timing for main: time 2019-11-26_23:45:45 on domain   1:    1.04658 elapsed seconds
Timing for main: time 2019-11-26_23:46:00 on domain   1:    1.04058 elapsed seconds
Timing for main: time 2019-11-26_23:46:15 on domain   1:    1.04962 elapsed seconds
Timing for main: time 2019-11-26_23:46:30 on domain   1:    1.04000 elapsed seconds
Timing for main: time 2019-11-26_23:46:45 on domain   1:    1.03828 elapsed seconds
Timing for main: time 2019-11-26_23:47:00 on domain   1:    1.04369 elapsed seconds
Timing for main: time 2019-11-26_23:47:15 on domain   1:    1.04222 elapsed seconds
Timing for main: time 2019-11-26_23:47:30 on domain   1:    1.04040 elapsed seconds
Timing for main: time 2019-11-26_23:47:45 on domain   1:    1.04354 elapsed seconds
Timing for main: time 2019-11-26_23:48:00 on domain   1:    1.04160 elapsed seconds
Timing for main: time 2019-11-26_23:48:15 on domain   1:    1.04479 elapsed seconds
Timing for main: time 2019-11-26_23:48:30 on domain   1:    1.04645 elapsed seconds
Timing for main: time 2019-11-26_23:48:45 on domain   1:    1.03680 elapsed seconds
Timing for main: time 2019-11-26_23:49:00 on domain   1:    1.04380 elapsed seconds
Timing for main: time 2019-11-26_23:49:15 on domain   1:    1.04541 elapsed seconds
Timing for main: time 2019-11-26_23:49:30 on domain   1:    1.03837 elapsed seconds
Timing for main: time 2019-11-26_23:49:45 on domain   1:    1.04167 elapsed seconds
Timing for main: time 2019-11-26_23:50:00 on domain   1:    1.04222 elapsed seconds
Timing for main: time 2019-11-26_23:50:15 on domain   1:    7.49630 elapsed seconds
Timing for main: time 2019-11-26_23:50:30 on domain   1:    1.03727 elapsed seconds
Timing for main: time 2019-11-26_23:50:45 on domain   1:    1.04208 elapsed seconds
Timing for main: time 2019-11-26_23:51:00 on domain   1:    1.03484 elapsed seconds
Timing for main: time 2019-11-26_23:51:15 on domain   1:    1.75336 elapsed seconds
Timing for main: time 2019-11-26_23:51:30 on domain   1:    1.31419 elapsed seconds
Timing for main: time 2019-11-26_23:51:45 on domain   1:    1.04054 elapsed seconds
Timing for main: time 2019-11-26_23:52:00 on domain   1:    1.04254 elapsed seconds
Timing for main: time 2019-11-26_23:52:15 on domain   1:    1.03865 elapsed seconds
Timing for main: time 2019-11-26_23:52:30 on domain   1:    1.04360 elapsed seconds
Timing for main: time 2019-11-26_23:52:45 on domain   1:    1.03864 elapsed seconds
Timing for main: time 2019-11-26_23:53:00 on domain   1:    1.04366 elapsed seconds
Timing for main: time 2019-11-26_23:53:15 on domain   1:    1.03779 elapsed seconds
Timing for main: time 2019-11-26_23:53:30 on domain   1:    1.04753 elapsed seconds
Timing for main: time 2019-11-26_23:53:45 on domain   1:    1.03947 elapsed seconds
Timing for main: time 2019-11-26_23:54:00 on domain   1:    1.04159 elapsed seconds
Timing for main: time 2019-11-26_23:54:15 on domain   1:    1.03731 elapsed seconds
Timing for main: time 2019-11-26_23:54:30 on domain   1:    1.04316 elapsed seconds
Timing for main: time 2019-11-26_23:54:45 on domain   1:    1.03768 elapsed seconds
Timing for main: time 2019-11-26_23:55:00 on domain   1:    1.05660 elapsed seconds
Timing for main: time 2019-11-26_23:55:15 on domain   1:    1.03693 elapsed seconds
Timing for main: time 2019-11-26_23:55:30 on domain   1:    1.04281 elapsed seconds
Timing for main: time 2019-11-26_23:55:45 on domain   1:    1.03934 elapsed seconds
Timing for main: time 2019-11-26_23:56:00 on domain   1:    1.04849 elapsed seconds
Timing for main: time 2019-11-26_23:56:15 on domain   1:    1.03870 elapsed seconds
Timing for main: time 2019-11-26_23:56:30 on domain   1:    1.03774 elapsed seconds
Timing for main: time 2019-11-26_23:56:45 on domain   1:    1.05009 elapsed seconds
Timing for main: time 2019-11-26_23:57:00 on domain   1:    1.03916 elapsed seconds
Timing for main: time 2019-11-26_23:57:15 on domain   1:    1.04871 elapsed seconds
Timing for main: time 2019-11-26_23:57:30 on domain   1:    1.04170 elapsed seconds
Timing for main: time 2019-11-26_23:57:45 on domain   1:    1.04702 elapsed seconds
Timing for main: time 2019-11-26_23:58:00 on domain   1:    1.03714 elapsed seconds
Timing for main: time 2019-11-26_23:58:15 on domain   1:    1.05285 elapsed seconds
Timing for main: time 2019-11-26_23:58:30 on domain   1:    1.03961 elapsed seconds
Timing for main: time 2019-11-26_23:58:45 on domain   1:    1.05470 elapsed seconds
Timing for main: time 2019-11-26_23:59:00 on domain   1:    1.04022 elapsed seconds
Timing for main: time 2019-11-26_23:59:15 on domain   1:    1.04670 elapsed seconds
Timing for main: time 2019-11-26_23:59:30 on domain   1:    1.04090 elapsed seconds
Timing for main: time 2019-11-26_23:59:45 on domain   1:    1.04284 elapsed seconds
Timing for main: time 2019-11-27_00:00:00 on domain   1:    1.05185 elapsed seconds
 mediation_integrate.G        1249 DATASET=HISTORY
 mediation_integrate.G        1250  grid%id            1  grid%oid            2
Timing for Writing wrfout_d01_2019-11-27_00:00:00 for domain        1:    4.50144 elapsed seconds
wrf: SUCCESS COMPLETE WRF
