taskid: 0 hostname: x1005c0s2b0n0
 module_io_quilt_old.F        2931 F
Quilting with   1 groups of   0 I/O tasks.
 Ntasks in X           24 , ntasks in Y           32
*************************************
Configuring physics suite 'conus'

         mp_physics:      8
         cu_physics:      0*
      ra_lw_physics:      4
      ra_sw_physics:      4
     bl_pbl_physics:      2
  sf_sfclay_physics:      2
 sf_surface_physics:      2

(* = option overrides suite setting)
*************************************
Domain # 1: dx =  2500.000 m
WRF V4.7.1 MODEL
No git found or not a git repository, git commit version not available.
 *************************************
 Parent domain
 ids,ide,jds,jde            1        1501           1        1201
 ims,ime,jms,jme           -4          70          -4          45
 ips,ipe,jps,jpe            1          63           1          38
 *************************************
DYNAMICS OPTION: Eulerian Mass Coordinate
 alloc_space_field: domain            1 ,             131984692  bytes allocated
med_initialdata_input: calling input_input
 Input data is acceptable to use: wrfinput_d01
 CURRENT DATE          = 2019-11-26_18:00:00
 SIMULATION START DATE = 2019-11-26_18:00:00
Timing for processing wrfinput file (stream 0) for domain        1:   37.03663 elapsed seconds
Max map factor in domain 1 =  1.02. Scale the dt in the model accordingly.
 D01: Time step                              =    15.0000000      (s)
 D01: Grid Distance                          =    2.50000000      (km)
 D01: Grid Distance Ratio dt/dx              =    6.00000000      (s/km)
 D01: Ratio Including Maximum Map Factor     =    6.13815594      (s/km)
 D01: NML defined reasonable_time_step_ratio =    6.00000000
 Climate GHG input from file from year         1765  to         2499
 CO2   range =    277.91300000000001        579.26400000000001       ppm
 N2O   range =    274.37200000000001        359.79800000000000       ppb
 CH4   range =    738.98599999999999        997.31100000000004       ppb
 CFC11 range =    0.0000000000000000        1.4000000000000000E-002  ppt
 CFC12 range =    0.0000000000000000        2.8809999999999998       ppt
 Normal ending of CAMtr_volume_mixing_ratio file
 GHG annual values from CAM trace gas file
 Year =         2019 , Julian day =          330
 CO2   =    4.1280616288937283E-004  volume mixing ratio
 N2O   =    3.3164731848847696E-007  volume mixing ratio
 CH4   =    1.9046224215321381E-006  volume mixing ratio
 CFC11 =    2.1972312207550427E-010  volume mixing ratio
 CFC12 =    4.9756474391800364E-010  volume mixing ratio
INPUT LandUse = "MODIFIED_IGBP_MODIS_NOAH"
 LANDUSE TYPE = "MODIFIED_IGBP_MODIS_NOAH" FOUND          61  CATEGORIES           2  SEASONS WATER CATEGORY =           17  SNOW CATEGORY =           15
INITIALIZE THREE Noah LSM RELATED TABLES
Skipping over LUTYPE = USGS
 LANDUSE TYPE = MODIFIED_IGBP_MODIS_NOAH FOUND          20  CATEGORIES
 INPUT SOIL TEXTURE CLASSIFICATION = STAS
 SOIL TEXTURE CLASSIFICATION = STAS FOUND          19  CATEGORIES
ThompMP: computing qr_acr_qg table: qr_acr_qg_V4.dat
Timing for table computation qr_acr_qg_V4.dat:    1.60370 elapsed seconds
Writing qr_acr_qg_V4.dat     in Thompson MP init
ThompMP: read qr_acr_qsV2.dat instead of computing
ThompMP: read freezeH2O.dat instead of computing
 mediation_integrate.G        1249 DATASET=HISTORY
 mediation_integrate.G        1250  grid%id            1  grid%oid            1
Timing for Writing wrfout_d01_2019-11-26_18:00:00 for domain        1:    7.97626 elapsed seconds
 Input data is acceptable to use: wrfbdy_d01
Timing for processing lateral boundary for domain        1:    1.54612 elapsed seconds
WRF NUMBER OF TILES FROM OMP_GET_MAX_THREADS =   1
 Tile Strategy is not specified. Assuming 1D-Y
WRF TILE   1 IS      1 IE     63 JS      1 JE     38
WRF NUMBER OF TILES =   1
 ----------------------------------------
 W-DAMPING  BEGINS AT W-COURANT NUMBER =    1.00000000
 ----------------------------------------
Timing for main: time 2019-11-26_18:00:15 on domain   1:   13.27988 elapsed seconds
Timing for main: time 2019-11-26_18:00:30 on domain   1:    0.47503 elapsed seconds
Timing for main: time 2019-11-26_18:00:45 on domain   1:    0.47843 elapsed seconds
Timing for main: time 2019-11-26_18:01:00 on domain   1:    0.48270 elapsed seconds
Timing for main: time 2019-11-26_18:01:15 on domain   1:    0.48003 elapsed seconds
Timing for main: time 2019-11-26_18:01:30 on domain   1:    0.52361 elapsed seconds
Timing for main: time 2019-11-26_18:01:45 on domain   1:    0.46384 elapsed seconds
Timing for main: time 2019-11-26_18:02:00 on domain   1:    0.47501 elapsed seconds
Timing for main: time 2019-11-26_18:02:15 on domain   1:    0.47583 elapsed seconds
Timing for main: time 2019-11-26_18:02:30 on domain   1:    0.47770 elapsed seconds
Timing for main: time 2019-11-26_18:02:45 on domain   1:    0.47892 elapsed seconds
Timing for main: time 2019-11-26_18:03:00 on domain   1:    0.47969 elapsed seconds
Timing for main: time 2019-11-26_18:03:15 on domain   1:    0.47995 elapsed seconds
Timing for main: time 2019-11-26_18:03:30 on domain   1:    0.48212 elapsed seconds
Timing for main: time 2019-11-26_18:03:45 on domain   1:    0.47978 elapsed seconds
Timing for main: time 2019-11-26_18:04:00 on domain   1:    0.47999 elapsed seconds
Timing for main: time 2019-11-26_18:04:15 on domain   1:    0.47966 elapsed seconds
Timing for main: time 2019-11-26_18:04:30 on domain   1:    0.47905 elapsed seconds
Timing for main: time 2019-11-26_18:04:45 on domain   1:    0.47968 elapsed seconds
Timing for main: time 2019-11-26_18:05:00 on domain   1:    0.47971 elapsed seconds
Timing for main: time 2019-11-26_18:05:15 on domain   1:    0.47998 elapsed seconds
Timing for main: time 2019-11-26_18:05:30 on domain   1:    0.47828 elapsed seconds
Timing for main: time 2019-11-26_18:05:45 on domain   1:    0.48089 elapsed seconds
Timing for main: time 2019-11-26_18:06:00 on domain   1:    0.47982 elapsed seconds
Timing for main: time 2019-11-26_18:06:15 on domain   1:    0.47881 elapsed seconds
Timing for main: time 2019-11-26_18:06:30 on domain   1:    0.48145 elapsed seconds
Timing for main: time 2019-11-26_18:06:45 on domain   1:    0.48019 elapsed seconds
Timing for main: time 2019-11-26_18:07:00 on domain   1:    0.48047 elapsed seconds
Timing for main: time 2019-11-26_18:07:15 on domain   1:    0.48138 elapsed seconds
Timing for main: time 2019-11-26_18:07:30 on domain   1:    0.48119 elapsed seconds
Timing for main: time 2019-11-26_18:07:45 on domain   1:    0.48091 elapsed seconds
Timing for main: time 2019-11-26_18:08:00 on domain   1:    0.48177 elapsed seconds
Timing for main: time 2019-11-26_18:08:15 on domain   1:    0.48122 elapsed seconds
Timing for main: time 2019-11-26_18:08:30 on domain   1:    0.48562 elapsed seconds
Timing for main: time 2019-11-26_18:08:45 on domain   1:    0.48068 elapsed seconds
Timing for main: time 2019-11-26_18:09:00 on domain   1:    0.47993 elapsed seconds
Timing for main: time 2019-11-26_18:09:15 on domain   1:    0.48150 elapsed seconds
Timing for main: time 2019-11-26_18:09:30 on domain   1:    0.48162 elapsed seconds
Timing for main: time 2019-11-26_18:09:45 on domain   1:    0.48334 elapsed seconds
Timing for main: time 2019-11-26_18:10:00 on domain   1:    0.48381 elapsed seconds
Timing for main: time 2019-11-26_18:10:15 on domain   1:    3.79425 elapsed seconds
Timing for main: time 2019-11-26_18:10:30 on domain   1:    0.48071 elapsed seconds
Timing for main: time 2019-11-26_18:10:45 on domain   1:    0.48773 elapsed seconds
Timing for main: time 2019-11-26_18:11:00 on domain   1:    0.49361 elapsed seconds
Timing for main: time 2019-11-26_18:11:15 on domain   1:    0.48506 elapsed seconds
Timing for main: time 2019-11-26_18:11:30 on domain   1:    0.48351 elapsed seconds
Timing for main: time 2019-11-26_18:11:45 on domain   1:    0.48332 elapsed seconds
Timing for main: time 2019-11-26_18:12:00 on domain   1:    0.48460 elapsed seconds
Timing for main: time 2019-11-26_18:12:15 on domain   1:    0.48273 elapsed seconds
Timing for main: time 2019-11-26_18:12:30 on domain   1:    0.48852 elapsed seconds
Timing for main: time 2019-11-26_18:12:45 on domain   1:    0.48160 elapsed seconds
Timing for main: time 2019-11-26_18:13:00 on domain   1:    0.48213 elapsed seconds
Timing for main: time 2019-11-26_18:13:15 on domain   1:    0.48630 elapsed seconds
Timing for main: time 2019-11-26_18:13:30 on domain   1:    0.48198 elapsed seconds
Timing for main: time 2019-11-26_18:13:45 on domain   1:    0.48565 elapsed seconds
Timing for main: time 2019-11-26_18:14:00 on domain   1:    0.48602 elapsed seconds
Timing for main: time 2019-11-26_18:14:15 on domain   1:    0.48353 elapsed seconds
Timing for main: time 2019-11-26_18:14:30 on domain   1:    0.48607 elapsed seconds
Timing for main: time 2019-11-26_18:14:45 on domain   1:    0.48765 elapsed seconds
Timing for main: time 2019-11-26_18:15:00 on domain   1:    0.48608 elapsed seconds
Timing for main: time 2019-11-26_18:15:15 on domain   1:    0.48683 elapsed seconds
Timing for main: time 2019-11-26_18:15:30 on domain   1:    0.48910 elapsed seconds
Timing for main: time 2019-11-26_18:15:45 on domain   1:    0.48686 elapsed seconds
Timing for main: time 2019-11-26_18:16:00 on domain   1:    0.48877 elapsed seconds
Timing for main: time 2019-11-26_18:16:15 on domain   1:    0.48652 elapsed seconds
Timing for main: time 2019-11-26_18:16:30 on domain   1:    0.48814 elapsed seconds
Timing for main: time 2019-11-26_18:16:45 on domain   1:    0.49024 elapsed seconds
Timing for main: time 2019-11-26_18:17:00 on domain   1:    0.48794 elapsed seconds
Timing for main: time 2019-11-26_18:17:15 on domain   1:    0.49044 elapsed seconds
Timing for main: time 2019-11-26_18:17:30 on domain   1:    0.48966 elapsed seconds
Timing for main: time 2019-11-26_18:17:45 on domain   1:    0.49038 elapsed seconds
Timing for main: time 2019-11-26_18:18:00 on domain   1:    0.49095 elapsed seconds
Timing for main: time 2019-11-26_18:18:15 on domain   1:    0.49167 elapsed seconds
Timing for main: time 2019-11-26_18:18:30 on domain   1:    0.48960 elapsed seconds
Timing for main: time 2019-11-26_18:18:45 on domain   1:    0.49069 elapsed seconds
Timing for main: time 2019-11-26_18:19:00 on domain   1:    0.49169 elapsed seconds
Timing for main: time 2019-11-26_18:19:15 on domain   1:    0.49061 elapsed seconds
Timing for main: time 2019-11-26_18:19:30 on domain   1:    0.49170 elapsed seconds
Timing for main: time 2019-11-26_18:19:45 on domain   1:    0.49177 elapsed seconds
Timing for main: time 2019-11-26_18:20:00 on domain   1:    0.49270 elapsed seconds
Timing for main: time 2019-11-26_18:20:15 on domain   1:    4.98997 elapsed seconds
Timing for main: time 2019-11-26_18:20:30 on domain   1:    0.48161 elapsed seconds
Timing for main: time 2019-11-26_18:20:45 on domain   1:    0.49272 elapsed seconds
Timing for main: time 2019-11-26_18:21:00 on domain   1:    0.49314 elapsed seconds
Timing for main: time 2019-11-26_18:21:15 on domain   1:    0.49097 elapsed seconds
Timing for main: time 2019-11-26_18:21:30 on domain   1:    0.49296 elapsed seconds
Timing for main: time 2019-11-26_18:21:45 on domain   1:    0.49362 elapsed seconds
Timing for main: time 2019-11-26_18:22:00 on domain   1:    0.49577 elapsed seconds
Timing for main: time 2019-11-26_18:22:15 on domain   1:    0.49312 elapsed seconds
Timing for main: time 2019-11-26_18:22:30 on domain   1:    0.49443 elapsed seconds
Timing for main: time 2019-11-26_18:22:45 on domain   1:    0.49409 elapsed seconds
Timing for main: time 2019-11-26_18:23:00 on domain   1:    0.49253 elapsed seconds
Timing for main: time 2019-11-26_18:23:15 on domain   1:    0.49714 elapsed seconds
Timing for main: time 2019-11-26_18:23:30 on domain   1:    0.49562 elapsed seconds
Timing for main: time 2019-11-26_18:23:45 on domain   1:    0.49554 elapsed seconds
Timing for main: time 2019-11-26_18:24:00 on domain   1:    0.49601 elapsed seconds
Timing for main: time 2019-11-26_18:24:15 on domain   1:    0.49706 elapsed seconds
Timing for main: time 2019-11-26_18:24:30 on domain   1:    0.49718 elapsed seconds
Timing for main: time 2019-11-26_18:24:45 on domain   1:    0.49511 elapsed seconds
Timing for main: time 2019-11-26_18:25:00 on domain   1:    0.49833 elapsed seconds
Timing for main: time 2019-11-26_18:25:15 on domain   1:    0.49737 elapsed seconds
Timing for main: time 2019-11-26_18:25:30 on domain   1:    0.49840 elapsed seconds
Timing for main: time 2019-11-26_18:25:45 on domain   1:    0.49716 elapsed seconds
Timing for main: time 2019-11-26_18:26:00 on domain   1:    0.50113 elapsed seconds
Timing for main: time 2019-11-26_18:26:15 on domain   1:    0.49740 elapsed seconds
Timing for main: time 2019-11-26_18:26:30 on domain   1:    0.49941 elapsed seconds
Timing for main: time 2019-11-26_18:26:45 on domain   1:    0.49924 elapsed seconds
Timing for main: time 2019-11-26_18:27:00 on domain   1:    0.49987 elapsed seconds
Timing for main: time 2019-11-26_18:27:15 on domain   1:    0.50072 elapsed seconds
Timing for main: time 2019-11-26_18:27:30 on domain   1:    0.50076 elapsed seconds
Timing for main: time 2019-11-26_18:27:45 on domain   1:    0.50090 elapsed seconds
Timing for main: time 2019-11-26_18:28:00 on domain   1:    0.50254 elapsed seconds
Timing for main: time 2019-11-26_18:28:15 on domain   1:    0.50174 elapsed seconds
Timing for main: time 2019-11-26_18:28:30 on domain   1:    0.50095 elapsed seconds
Timing for main: time 2019-11-26_18:28:45 on domain   1:    0.50290 elapsed seconds
Timing for main: time 2019-11-26_18:29:00 on domain   1:    0.50459 elapsed seconds
Timing for main: time 2019-11-26_18:29:15 on domain   1:    0.50401 elapsed seconds
Timing for main: time 2019-11-26_18:29:30 on domain   1:    0.50296 elapsed seconds
Timing for main: time 2019-11-26_18:29:45 on domain   1:    0.50625 elapsed seconds
Timing for main: time 2019-11-26_18:30:00 on domain   1:    0.50419 elapsed seconds
Timing for main: time 2019-11-26_18:30:15 on domain   1:    4.81215 elapsed seconds
Timing for main: time 2019-11-26_18:30:30 on domain   1:    0.49071 elapsed seconds
Timing for main: time 2019-11-26_18:30:45 on domain   1:    1.68841 elapsed seconds
Timing for main: time 2019-11-26_18:31:00 on domain   1:    1.12885 elapsed seconds
Timing for main: time 2019-11-26_18:31:15 on domain   1:    0.49489 elapsed seconds
Timing for main: time 2019-11-26_18:31:30 on domain   1:    0.50641 elapsed seconds
Timing for main: time 2019-11-26_18:31:45 on domain   1:    0.50878 elapsed seconds
Timing for main: time 2019-11-26_18:32:00 on domain   1:    0.51223 elapsed seconds
Timing for main: time 2019-11-26_18:32:15 on domain   1:    0.50787 elapsed seconds
Timing for main: time 2019-11-26_18:32:30 on domain   1:    0.50875 elapsed seconds
Timing for main: time 2019-11-26_18:32:45 on domain   1:    0.50590 elapsed seconds
Timing for main: time 2019-11-26_18:33:00 on domain   1:    0.50977 elapsed seconds
Timing for main: time 2019-11-26_18:33:15 on domain   1:    0.50831 elapsed seconds
Timing for main: time 2019-11-26_18:33:30 on domain   1:    0.51164 elapsed seconds
Timing for main: time 2019-11-26_18:33:45 on domain   1:    0.50874 elapsed seconds
Timing for main: time 2019-11-26_18:34:00 on domain   1:    0.51089 elapsed seconds
Timing for main: time 2019-11-26_18:34:15 on domain   1:    0.50783 elapsed seconds
Timing for main: time 2019-11-26_18:34:30 on domain   1:    0.51524 elapsed seconds
Timing for main: time 2019-11-26_18:34:45 on domain   1:    0.50645 elapsed seconds
Timing for main: time 2019-11-26_18:35:00 on domain   1:    0.51277 elapsed seconds
Timing for main: time 2019-11-26_18:35:15 on domain   1:    0.50857 elapsed seconds
Timing for main: time 2019-11-26_18:35:30 on domain   1:    0.51445 elapsed seconds
Timing for main: time 2019-11-26_18:35:45 on domain   1:    0.51094 elapsed seconds
Timing for main: time 2019-11-26_18:36:00 on domain   1:    0.51478 elapsed seconds
Timing for main: time 2019-11-26_18:36:15 on domain   1:    0.50943 elapsed seconds
Timing for main: time 2019-11-26_18:36:30 on domain   1:    0.51258 elapsed seconds
Timing for main: time 2019-11-26_18:36:45 on domain   1:    0.51164 elapsed seconds
Timing for main: time 2019-11-26_18:37:00 on domain   1:    0.51399 elapsed seconds
Timing for main: time 2019-11-26_18:37:15 on domain   1:    0.51193 elapsed seconds
Timing for main: time 2019-11-26_18:37:30 on domain   1:    0.51598 elapsed seconds
Timing for main: time 2019-11-26_18:37:45 on domain   1:    0.51161 elapsed seconds
Timing for main: time 2019-11-26_18:38:00 on domain   1:    0.51489 elapsed seconds
Timing for main: time 2019-11-26_18:38:15 on domain   1:    0.50924 elapsed seconds
Timing for main: time 2019-11-26_18:38:30 on domain   1:    0.51492 elapsed seconds
Timing for main: time 2019-11-26_18:38:45 on domain   1:    0.51007 elapsed seconds
Timing for main: time 2019-11-26_18:39:00 on domain   1:    0.51705 elapsed seconds
Timing for main: time 2019-11-26_18:39:15 on domain   1:    0.50674 elapsed seconds
Timing for main: time 2019-11-26_18:39:30 on domain   1:    0.51666 elapsed seconds
Timing for main: time 2019-11-26_18:39:45 on domain   1:    0.51016 elapsed seconds
Timing for main: time 2019-11-26_18:40:00 on domain   1:    0.51701 elapsed seconds
Timing for main: time 2019-11-26_18:40:15 on domain   1:    4.04961 elapsed seconds
Timing for main: time 2019-11-26_18:40:30 on domain   1:    0.51413 elapsed seconds
Timing for main: time 2019-11-26_18:40:45 on domain   1:    0.51425 elapsed seconds
Timing for main: time 2019-11-26_18:41:00 on domain   1:    0.51462 elapsed seconds
Timing for main: time 2019-11-26_18:41:15 on domain   1:    0.51551 elapsed seconds
Timing for main: time 2019-11-26_18:41:30 on domain   1:    0.51196 elapsed seconds
Timing for main: time 2019-11-26_18:41:45 on domain   1:    0.51470 elapsed seconds
Timing for main: time 2019-11-26_18:42:00 on domain   1:    0.51387 elapsed seconds
Timing for main: time 2019-11-26_18:42:15 on domain   1:    0.51537 elapsed seconds
Timing for main: time 2019-11-26_18:42:30 on domain   1:    0.51208 elapsed seconds
Timing for main: time 2019-11-26_18:42:45 on domain   1:    0.51473 elapsed seconds
Timing for main: time 2019-11-26_18:43:00 on domain   1:    0.51689 elapsed seconds
Timing for main: time 2019-11-26_18:43:15 on domain   1:    0.51551 elapsed seconds
Timing for main: time 2019-11-26_18:43:30 on domain   1:    0.51511 elapsed seconds
Timing for main: time 2019-11-26_18:43:45 on domain   1:    0.51458 elapsed seconds
Timing for main: time 2019-11-26_18:44:00 on domain   1:    0.51835 elapsed seconds
Timing for main: time 2019-11-26_18:44:15 on domain   1:    0.51578 elapsed seconds
Timing for main: time 2019-11-26_18:44:30 on domain   1:    0.51725 elapsed seconds
Timing for main: time 2019-11-26_18:44:45 on domain   1:    0.51604 elapsed seconds
Timing for main: time 2019-11-26_18:45:00 on domain   1:    0.51718 elapsed seconds
Timing for main: time 2019-11-26_18:45:15 on domain   1:    1.29245 elapsed seconds
Timing for main: time 2019-11-26_18:45:30 on domain   1:    0.60412 elapsed seconds
Timing for main: time 2019-11-26_18:45:45 on domain   1:    0.51597 elapsed seconds
Timing for main: time 2019-11-26_18:46:00 on domain   1:    0.51752 elapsed seconds
Timing for main: time 2019-11-26_18:46:15 on domain   1:    0.51859 elapsed seconds
Timing for main: time 2019-11-26_18:46:30 on domain   1:    0.51565 elapsed seconds
Timing for main: time 2019-11-26_18:46:45 on domain   1:    0.51668 elapsed seconds
Timing for main: time 2019-11-26_18:47:00 on domain   1:    0.52188 elapsed seconds
Timing for main: time 2019-11-26_18:47:15 on domain   1:    0.51691 elapsed seconds
Timing for main: time 2019-11-26_18:47:30 on domain   1:    0.52193 elapsed seconds
Timing for main: time 2019-11-26_18:47:45 on domain   1:    0.51679 elapsed seconds
Timing for main: time 2019-11-26_18:48:00 on domain   1:    0.52010 elapsed seconds
Timing for main: time 2019-11-26_18:48:15 on domain   1:    1.46750 elapsed seconds
Timing for main: time 2019-11-26_18:48:30 on domain   1:    0.54121 elapsed seconds
Timing for main: time 2019-11-26_18:48:45 on domain   1:    0.51976 elapsed seconds
Timing for main: time 2019-11-26_18:49:00 on domain   1:    0.52140 elapsed seconds
Timing for main: time 2019-11-26_18:49:15 on domain   1:    0.51936 elapsed seconds
Timing for main: time 2019-11-26_18:49:30 on domain   1:    0.51747 elapsed seconds
Timing for main: time 2019-11-26_18:49:45 on domain   1:    0.51925 elapsed seconds
Timing for main: time 2019-11-26_18:50:00 on domain   1:    0.52049 elapsed seconds
Timing for main: time 2019-11-26_18:50:15 on domain   1:    4.09812 elapsed seconds
Timing for main: time 2019-11-26_18:50:30 on domain   1:    0.51795 elapsed seconds
Timing for main: time 2019-11-26_18:50:45 on domain   1:    0.55302 elapsed seconds
Timing for main: time 2019-11-26_18:51:00 on domain   1:    0.50864 elapsed seconds
Timing for main: time 2019-11-26_18:51:15 on domain   1:    0.52021 elapsed seconds
Timing for main: time 2019-11-26_18:51:30 on domain   1:    0.52154 elapsed seconds
Timing for main: time 2019-11-26_18:51:45 on domain   1:    0.52077 elapsed seconds
Timing for main: time 2019-11-26_18:52:00 on domain   1:    0.52067 elapsed seconds
Timing for main: time 2019-11-26_18:52:15 on domain   1:    0.51951 elapsed seconds
Timing for main: time 2019-11-26_18:52:30 on domain   1:    0.52336 elapsed seconds
Timing for main: time 2019-11-26_18:52:45 on domain   1:    0.52039 elapsed seconds
Timing for main: time 2019-11-26_18:53:00 on domain   1:    0.52411 elapsed seconds
Timing for main: time 2019-11-26_18:53:15 on domain   1:    0.52006 elapsed seconds
Timing for main: time 2019-11-26_18:53:30 on domain   1:    0.52370 elapsed seconds
Timing for main: time 2019-11-26_18:53:45 on domain   1:    0.52253 elapsed seconds
Timing for main: time 2019-11-26_18:54:00 on domain   1:    0.52279 elapsed seconds
Timing for main: time 2019-11-26_18:54:15 on domain   1:    0.52174 elapsed seconds
Timing for main: time 2019-11-26_18:54:30 on domain   1:    0.52248 elapsed seconds
Timing for main: time 2019-11-26_18:54:45 on domain   1:    0.52296 elapsed seconds
Timing for main: time 2019-11-26_18:55:00 on domain   1:    0.52297 elapsed seconds
Timing for main: time 2019-11-26_18:55:15 on domain   1:    0.52402 elapsed seconds
Timing for main: time 2019-11-26_18:55:30 on domain   1:    0.52161 elapsed seconds
Timing for main: time 2019-11-26_18:55:45 on domain   1:    0.52172 elapsed seconds
Timing for main: time 2019-11-26_18:56:00 on domain   1:    0.52570 elapsed seconds
Timing for main: time 2019-11-26_18:56:15 on domain   1:    0.52025 elapsed seconds
Timing for main: time 2019-11-26_18:56:30 on domain   1:    0.52599 elapsed seconds
Timing for main: time 2019-11-26_18:56:45 on domain   1:    0.52302 elapsed seconds
Timing for main: time 2019-11-26_18:57:00 on domain   1:    0.52601 elapsed seconds
Timing for main: time 2019-11-26_18:57:15 on domain   1:    0.52266 elapsed seconds
Timing for main: time 2019-11-26_18:57:30 on domain   1:    0.52371 elapsed seconds
Timing for main: time 2019-11-26_18:57:45 on domain   1:    0.52623 elapsed seconds
Timing for main: time 2019-11-26_18:58:00 on domain   1:    0.52437 elapsed seconds
Timing for main: time 2019-11-26_18:58:15 on domain   1:    0.52560 elapsed seconds
Timing for main: time 2019-11-26_18:58:30 on domain   1:    0.52478 elapsed seconds
Timing for main: time 2019-11-26_18:58:45 on domain   1:    0.52414 elapsed seconds
Timing for main: time 2019-11-26_18:59:00 on domain   1:    0.52601 elapsed seconds
Timing for main: time 2019-11-26_18:59:15 on domain   1:    0.52459 elapsed seconds
Timing for main: time 2019-11-26_18:59:30 on domain   1:    0.52624 elapsed seconds
Timing for main: time 2019-11-26_18:59:45 on domain   1:    0.52627 elapsed seconds
Timing for main: time 2019-11-26_19:00:00 on domain   1:    0.52516 elapsed seconds
 mediation_integrate.G        1249 DATASET=HISTORY
 mediation_integrate.G        1250  grid%id            1  grid%oid            2
Timing for Writing wrfout_d01_2019-11-26_19:00:00 for domain        1:    7.57674 elapsed seconds
Timing for main: time 2019-11-26_19:00:15 on domain   1:   11.66183 elapsed seconds
Timing for main: time 2019-11-26_19:00:30 on domain   1:    0.52550 elapsed seconds
Timing for main: time 2019-11-26_19:00:45 on domain   1:    0.52711 elapsed seconds
Timing for main: time 2019-11-26_19:01:00 on domain   1:    0.52819 elapsed seconds
Timing for main: time 2019-11-26_19:01:15 on domain   1:    0.52961 elapsed seconds
Timing for main: time 2019-11-26_19:01:30 on domain   1:    0.52881 elapsed seconds
Timing for main: time 2019-11-26_19:01:45 on domain   1:    0.52996 elapsed seconds
Timing for main: time 2019-11-26_19:02:00 on domain   1:    0.53078 elapsed seconds
Timing for main: time 2019-11-26_19:02:15 on domain   1:    0.52909 elapsed seconds
Timing for main: time 2019-11-26_19:02:30 on domain   1:    0.52963 elapsed seconds
Timing for main: time 2019-11-26_19:02:45 on domain   1:    0.53006 elapsed seconds
Timing for main: time 2019-11-26_19:03:00 on domain   1:    0.52865 elapsed seconds
Timing for main: time 2019-11-26_19:03:15 on domain   1:    0.53066 elapsed seconds
Timing for main: time 2019-11-26_19:03:30 on domain   1:    0.52978 elapsed seconds
Timing for main: time 2019-11-26_19:03:45 on domain   1:    0.53241 elapsed seconds
Timing for main: time 2019-11-26_19:04:00 on domain   1:    0.53257 elapsed seconds
Timing for main: time 2019-11-26_19:04:15 on domain   1:    0.53288 elapsed seconds
Timing for main: time 2019-11-26_19:04:30 on domain   1:    0.53128 elapsed seconds
Timing for main: time 2019-11-26_19:04:45 on domain   1:    0.53300 elapsed seconds
Timing for main: time 2019-11-26_19:05:00 on domain   1:    0.53193 elapsed seconds
Timing for main: time 2019-11-26_19:05:15 on domain   1:    0.53384 elapsed seconds
Timing for main: time 2019-11-26_19:05:30 on domain   1:    0.53335 elapsed seconds
Timing for main: time 2019-11-26_19:05:45 on domain   1:    0.53214 elapsed seconds
Timing for main: time 2019-11-26_19:06:00 on domain   1:    0.53305 elapsed seconds
Timing for main: time 2019-11-26_19:06:15 on domain   1:    0.53326 elapsed seconds
Timing for main: time 2019-11-26_19:06:30 on domain   1:    0.53385 elapsed seconds
Timing for main: time 2019-11-26_19:06:45 on domain   1:    0.53444 elapsed seconds
Timing for main: time 2019-11-26_19:07:00 on domain   1:    0.80337 elapsed seconds
Timing for main: time 2019-11-26_19:07:15 on domain   1:    1.89541 elapsed seconds
Timing for main: time 2019-11-26_19:07:30 on domain   1:    0.67311 elapsed seconds
Timing for main: time 2019-11-26_19:07:45 on domain   1:    0.53456 elapsed seconds
Timing for main: time 2019-11-26_19:08:00 on domain   1:    0.53241 elapsed seconds
Timing for main: time 2019-11-26_19:08:15 on domain   1:    0.53551 elapsed seconds
Timing for main: time 2019-11-26_19:08:30 on domain   1:    0.53604 elapsed seconds
Timing for main: time 2019-11-26_19:08:45 on domain   1:    0.53528 elapsed seconds
Timing for main: time 2019-11-26_19:09:00 on domain   1:    0.53488 elapsed seconds
Timing for main: time 2019-11-26_19:09:15 on domain   1:    0.53497 elapsed seconds
Timing for main: time 2019-11-26_19:09:30 on domain   1:    0.53815 elapsed seconds
Timing for main: time 2019-11-26_19:09:45 on domain   1:    0.53488 elapsed seconds
Timing for main: time 2019-11-26_19:10:00 on domain   1:    0.53890 elapsed seconds
Timing for main: time 2019-11-26_19:10:15 on domain   1:    4.13769 elapsed seconds
Timing for main: time 2019-11-26_19:10:30 on domain   1:    0.52881 elapsed seconds
Timing for main: time 2019-11-26_19:10:45 on domain   1:    0.53695 elapsed seconds
Timing for main: time 2019-11-26_19:11:00 on domain   1:    0.53802 elapsed seconds
Timing for main: time 2019-11-26_19:11:15 on domain   1:    0.53749 elapsed seconds
Timing for main: time 2019-11-26_19:11:30 on domain   1:    0.53902 elapsed seconds
Timing for main: time 2019-11-26_19:11:45 on domain   1:    0.53756 elapsed seconds
Timing for main: time 2019-11-26_19:12:00 on domain   1:    0.54015 elapsed seconds
Timing for main: time 2019-11-26_19:12:15 on domain   1:    0.53907 elapsed seconds
Timing for main: time 2019-11-26_19:12:30 on domain   1:    0.54067 elapsed seconds
Timing for main: time 2019-11-26_19:12:45 on domain   1:    0.53880 elapsed seconds
Timing for main: time 2019-11-26_19:13:00 on domain   1:    0.53920 elapsed seconds
Timing for main: time 2019-11-26_19:13:15 on domain   1:    0.54101 elapsed seconds
Timing for main: time 2019-11-26_19:13:30 on domain   1:    0.62207 elapsed seconds
Timing for main: time 2019-11-26_19:13:45 on domain   1:    1.87503 elapsed seconds
Timing for main: time 2019-11-26_19:14:00 on domain   1:    0.51172 elapsed seconds
Timing for main: time 2019-11-26_19:14:15 on domain   1:    0.52750 elapsed seconds
Timing for main: time 2019-11-26_19:14:30 on domain   1:    0.53785 elapsed seconds
Timing for main: time 2019-11-26_19:14:45 on domain   1:    0.54225 elapsed seconds
Timing for main: time 2019-11-26_19:15:00 on domain   1:    0.53868 elapsed seconds
Timing for main: time 2019-11-26_19:15:15 on domain   1:    0.54276 elapsed seconds
Timing for main: time 2019-11-26_19:15:30 on domain   1:    0.54181 elapsed seconds
Timing for main: time 2019-11-26_19:15:45 on domain   1:    0.53891 elapsed seconds
Timing for main: time 2019-11-26_19:16:00 on domain   1:    0.54348 elapsed seconds
Timing for main: time 2019-11-26_19:16:15 on domain   1:    0.54203 elapsed seconds
Timing for main: time 2019-11-26_19:16:30 on domain   1:    0.54077 elapsed seconds
Timing for main: time 2019-11-26_19:16:45 on domain   1:    1.90518 elapsed seconds
Timing for main: time 2019-11-26_19:17:00 on domain   1:    0.98399 elapsed seconds
Timing for main: time 2019-11-26_19:17:15 on domain   1:    0.53500 elapsed seconds
Timing for main: time 2019-11-26_19:17:30 on domain   1:    0.54513 elapsed seconds
Timing for main: time 2019-11-26_19:17:45 on domain   1:    0.53824 elapsed seconds
Timing for main: time 2019-11-26_19:18:00 on domain   1:    0.53982 elapsed seconds
Timing for main: time 2019-11-26_19:18:15 on domain   1:    0.53911 elapsed seconds
Timing for main: time 2019-11-26_19:18:30 on domain   1:    0.54454 elapsed seconds
Timing for main: time 2019-11-26_19:18:45 on domain   1:    0.53894 elapsed seconds
Timing for main: time 2019-11-26_19:19:00 on domain   1:    0.54229 elapsed seconds
Timing for main: time 2019-11-26_19:19:15 on domain   1:    0.54172 elapsed seconds
Timing for main: time 2019-11-26_19:19:30 on domain   1:    0.54195 elapsed seconds
Timing for main: time 2019-11-26_19:19:45 on domain   1:    0.54522 elapsed seconds
Timing for main: time 2019-11-26_19:20:00 on domain   1:    0.54152 elapsed seconds
Timing for main: time 2019-11-26_19:20:15 on domain   1:    4.16727 elapsed seconds
Timing for main: time 2019-11-26_19:20:30 on domain   1:    0.53999 elapsed seconds
Timing for main: time 2019-11-26_19:20:45 on domain   1:    0.54724 elapsed seconds
Timing for main: time 2019-11-26_19:21:00 on domain   1:    0.53942 elapsed seconds
Timing for main: time 2019-11-26_19:21:15 on domain   1:    0.55046 elapsed seconds
Timing for main: time 2019-11-26_19:21:30 on domain   1:    0.54712 elapsed seconds
Timing for main: time 2019-11-26_19:21:45 on domain   1:    0.54491 elapsed seconds
Timing for main: time 2019-11-26_19:22:00 on domain   1:    0.54350 elapsed seconds
Timing for main: time 2019-11-26_19:22:15 on domain   1:    0.54380 elapsed seconds
Timing for main: time 2019-11-26_19:22:30 on domain   1:    0.54802 elapsed seconds
Timing for main: time 2019-11-26_19:22:45 on domain   1:    0.54767 elapsed seconds
Timing for main: time 2019-11-26_19:23:00 on domain   1:    0.54816 elapsed seconds
Timing for main: time 2019-11-26_19:23:15 on domain   1:    0.54836 elapsed seconds
Timing for main: time 2019-11-26_19:23:30 on domain   1:    0.54528 elapsed seconds
Timing for main: time 2019-11-26_19:23:45 on domain   1:    0.54784 elapsed seconds
Timing for main: time 2019-11-26_19:24:00 on domain   1:    0.54746 elapsed seconds
Timing for main: time 2019-11-26_19:24:15 on domain   1:    0.55027 elapsed seconds
Timing for main: time 2019-11-26_19:24:30 on domain   1:    0.54483 elapsed seconds
Timing for main: time 2019-11-26_19:24:45 on domain   1:    0.54506 elapsed seconds
Timing for main: time 2019-11-26_19:25:00 on domain   1:    0.55354 elapsed seconds
Timing for main: time 2019-11-26_19:25:15 on domain   1:    0.54866 elapsed seconds
Timing for main: time 2019-11-26_19:25:30 on domain   1:    0.54836 elapsed seconds
Timing for main: time 2019-11-26_19:25:45 on domain   1:    0.54944 elapsed seconds
Timing for main: time 2019-11-26_19:26:00 on domain   1:    0.54599 elapsed seconds
Timing for main: time 2019-11-26_19:26:15 on domain   1:    0.54852 elapsed seconds
Timing for main: time 2019-11-26_19:26:30 on domain   1:    0.54851 elapsed seconds
Timing for main: time 2019-11-26_19:26:45 on domain   1:    0.55106 elapsed seconds
Timing for main: time 2019-11-26_19:27:00 on domain   1:    0.54868 elapsed seconds
Timing for main: time 2019-11-26_19:27:15 on domain   1:    0.55261 elapsed seconds
Timing for main: time 2019-11-26_19:27:30 on domain   1:    0.55539 elapsed seconds
Timing for main: time 2019-11-26_19:27:45 on domain   1:    0.55228 elapsed seconds
Timing for main: time 2019-11-26_19:28:00 on domain   1:    0.55496 elapsed seconds
Timing for main: time 2019-11-26_19:28:15 on domain   1:    0.54870 elapsed seconds
Timing for main: time 2019-11-26_19:28:30 on domain   1:    0.58223 elapsed seconds
Timing for main: time 2019-11-26_19:28:45 on domain   1:    0.52225 elapsed seconds
Timing for main: time 2019-11-26_19:29:00 on domain   1:    0.55250 elapsed seconds
Timing for main: time 2019-11-26_19:29:15 on domain   1:    0.55241 elapsed seconds
Timing for main: time 2019-11-26_19:29:30 on domain   1:    1.32674 elapsed seconds
Timing for main: time 2019-11-26_19:29:45 on domain   1:    0.56278 elapsed seconds
Timing for main: time 2019-11-26_19:30:00 on domain   1:    0.54936 elapsed seconds
Timing for main: time 2019-11-26_19:30:15 on domain   1:    4.21482 elapsed seconds
Timing for main: time 2019-11-26_19:30:30 on domain   1:    0.53200 elapsed seconds
Timing for main: time 2019-11-26_19:30:45 on domain   1:    0.54734 elapsed seconds
Timing for main: time 2019-11-26_19:31:00 on domain   1:    0.54973 elapsed seconds
Timing for main: time 2019-11-26_19:31:15 on domain   1:    0.54838 elapsed seconds
Timing for main: time 2019-11-26_19:31:30 on domain   1:    1.60886 elapsed seconds
Timing for main: time 2019-11-26_19:31:45 on domain   1:    0.54426 elapsed seconds
Timing for main: time 2019-11-26_19:32:00 on domain   1:    0.54874 elapsed seconds
Timing for main: time 2019-11-26_19:32:15 on domain   1:    0.54902 elapsed seconds
Timing for main: time 2019-11-26_19:32:30 on domain   1:    0.54976 elapsed seconds
Timing for main: time 2019-11-26_19:32:45 on domain   1:    0.54462 elapsed seconds
Timing for main: time 2019-11-26_19:33:00 on domain   1:    0.54590 elapsed seconds
Timing for main: time 2019-11-26_19:33:15 on domain   1:    0.54856 elapsed seconds
Timing for main: time 2019-11-26_19:33:30 on domain   1:    0.59673 elapsed seconds
Timing for main: time 2019-11-26_19:33:45 on domain   1:    0.54703 elapsed seconds
Timing for main: time 2019-11-26_19:34:00 on domain   1:    0.54452 elapsed seconds
Timing for main: time 2019-11-26_19:34:15 on domain   1:    0.54676 elapsed seconds
Timing for main: time 2019-11-26_19:34:30 on domain   1:    0.54890 elapsed seconds
Timing for main: time 2019-11-26_19:34:45 on domain   1:    0.55135 elapsed seconds
Timing for main: time 2019-11-26_19:35:00 on domain   1:    0.54574 elapsed seconds
Timing for main: time 2019-11-26_19:35:15 on domain   1:    0.54755 elapsed seconds
Timing for main: time 2019-11-26_19:35:30 on domain   1:    0.55014 elapsed seconds
Timing for main: time 2019-11-26_19:35:45 on domain   1:    0.54958 elapsed seconds
Timing for main: time 2019-11-26_19:36:00 on domain   1:    0.54774 elapsed seconds
Timing for main: time 2019-11-26_19:36:15 on domain   1:    0.54578 elapsed seconds
Timing for main: time 2019-11-26_19:36:30 on domain   1:    0.55284 elapsed seconds
Timing for main: time 2019-11-26_19:36:45 on domain   1:    0.54070 elapsed seconds
Timing for main: time 2019-11-26_19:37:00 on domain   1:    0.55797 elapsed seconds
Timing for main: time 2019-11-26_19:37:15 on domain   1:    0.54866 elapsed seconds
Timing for main: time 2019-11-26_19:37:30 on domain   1:    0.54941 elapsed seconds
Timing for main: time 2019-11-26_19:37:45 on domain   1:    0.55035 elapsed seconds
Timing for main: time 2019-11-26_19:38:00 on domain   1:    0.54557 elapsed seconds
Timing for main: time 2019-11-26_19:38:15 on domain   1:    0.55085 elapsed seconds
Timing for main: time 2019-11-26_19:38:30 on domain   1:    0.54500 elapsed seconds
Timing for main: time 2019-11-26_19:38:45 on domain   1:    0.54725 elapsed seconds
Timing for main: time 2019-11-26_19:39:00 on domain   1:    0.55165 elapsed seconds
Timing for main: time 2019-11-26_19:39:15 on domain   1:    0.55201 elapsed seconds
Timing for main: time 2019-11-26_19:39:30 on domain   1:    0.54503 elapsed seconds
Timing for main: time 2019-11-26_19:39:45 on domain   1:    0.55237 elapsed seconds
Timing for main: time 2019-11-26_19:40:00 on domain   1:    0.54944 elapsed seconds
Timing for main: time 2019-11-26_19:40:15 on domain   1:    4.23047 elapsed seconds
Timing for main: time 2019-11-26_19:40:30 on domain   1:    0.53801 elapsed seconds
Timing for main: time 2019-11-26_19:40:45 on domain   1:    0.55030 elapsed seconds
Timing for main: time 2019-11-26_19:41:00 on domain   1:    0.54695 elapsed seconds
Timing for main: time 2019-11-26_19:41:15 on domain   1:    0.55191 elapsed seconds
Timing for main: time 2019-11-26_19:41:30 on domain   1:    0.54912 elapsed seconds
Timing for main: time 2019-11-26_19:41:45 on domain   1:    0.55067 elapsed seconds
Timing for main: time 2019-11-26_19:42:00 on domain   1:    0.54751 elapsed seconds
Timing for main: time 2019-11-26_19:42:15 on domain   1:    0.55031 elapsed seconds
Timing for main: time 2019-11-26_19:42:30 on domain   1:    0.54957 elapsed seconds
Timing for main: time 2019-11-26_19:42:45 on domain   1:    0.55213 elapsed seconds
Timing for main: time 2019-11-26_19:43:00 on domain   1:    0.54939 elapsed seconds
Timing for main: time 2019-11-26_19:43:15 on domain   1:    0.55216 elapsed seconds
Timing for main: time 2019-11-26_19:43:30 on domain   1:    0.55124 elapsed seconds
Timing for main: time 2019-11-26_19:43:45 on domain   1:    0.54928 elapsed seconds
Timing for main: time 2019-11-26_19:44:00 on domain   1:    0.54957 elapsed seconds
Timing for main: time 2019-11-26_19:44:15 on domain   1:    0.54909 elapsed seconds
Timing for main: time 2019-11-26_19:44:30 on domain   1:    0.54981 elapsed seconds
Timing for main: time 2019-11-26_19:44:45 on domain   1:    0.55291 elapsed seconds
Timing for main: time 2019-11-26_19:45:00 on domain   1:    0.55095 elapsed seconds
Timing for main: time 2019-11-26_19:45:15 on domain   1:    0.54729 elapsed seconds
Timing for main: time 2019-11-26_19:45:30 on domain   1:    0.55057 elapsed seconds
Timing for main: time 2019-11-26_19:45:45 on domain   1:    0.55008 elapsed seconds
Timing for main: time 2019-11-26_19:46:00 on domain   1:    0.55110 elapsed seconds
Timing for main: time 2019-11-26_19:46:15 on domain   1:    0.54764 elapsed seconds
Timing for main: time 2019-11-26_19:46:30 on domain   1:    0.55282 elapsed seconds
Timing for main: time 2019-11-26_19:46:45 on domain   1:    0.55095 elapsed seconds
Timing for main: time 2019-11-26_19:47:00 on domain   1:    0.55127 elapsed seconds
Timing for main: time 2019-11-26_19:47:15 on domain   1:    0.54974 elapsed seconds
Timing for main: time 2019-11-26_19:47:30 on domain   1:    0.55064 elapsed seconds
Timing for main: time 2019-11-26_19:47:45 on domain   1:    0.54756 elapsed seconds
Timing for main: time 2019-11-26_19:48:00 on domain   1:    0.54889 elapsed seconds
Timing for main: time 2019-11-26_19:48:15 on domain   1:    0.55297 elapsed seconds
Timing for main: time 2019-11-26_19:48:30 on domain   1:    0.55031 elapsed seconds
Timing for main: time 2019-11-26_19:48:45 on domain   1:    0.54834 elapsed seconds
Timing for main: time 2019-11-26_19:49:00 on domain   1:    0.55181 elapsed seconds
Timing for main: time 2019-11-26_19:49:15 on domain   1:    0.54753 elapsed seconds
Timing for main: time 2019-11-26_19:49:30 on domain   1:    0.54840 elapsed seconds
Timing for main: time 2019-11-26_19:49:45 on domain   1:    0.55023 elapsed seconds
Timing for main: time 2019-11-26_19:50:00 on domain   1:    0.55077 elapsed seconds
Timing for main: time 2019-11-26_19:50:15 on domain   1:    4.24170 elapsed seconds
Timing for main: time 2019-11-26_19:50:30 on domain   1:    0.54804 elapsed seconds
Timing for main: time 2019-11-26_19:50:45 on domain   1:    0.54580 elapsed seconds
Timing for main: time 2019-11-26_19:51:00 on domain   1:    0.55549 elapsed seconds
Timing for main: time 2019-11-26_19:51:15 on domain   1:    0.55208 elapsed seconds
Timing for main: time 2019-11-26_19:51:30 on domain   1:    0.54576 elapsed seconds
Timing for main: time 2019-11-26_19:51:45 on domain   1:    1.35197 elapsed seconds
Timing for main: time 2019-11-26_19:52:00 on domain   1:    1.52740 elapsed seconds
Timing for main: time 2019-11-26_19:52:15 on domain   1:    0.55293 elapsed seconds
Timing for main: time 2019-11-26_19:52:30 on domain   1:    0.54984 elapsed seconds
Timing for main: time 2019-11-26_19:52:45 on domain   1:    0.54840 elapsed seconds
Timing for main: time 2019-11-26_19:53:00 on domain   1:    0.54923 elapsed seconds
Timing for main: time 2019-11-26_19:53:15 on domain   1:    0.55132 elapsed seconds
Timing for main: time 2019-11-26_19:53:30 on domain   1:    0.54999 elapsed seconds
Timing for main: time 2019-11-26_19:53:45 on domain   1:    0.55370 elapsed seconds
Timing for main: time 2019-11-26_19:54:00 on domain   1:    0.55039 elapsed seconds
Timing for main: time 2019-11-26_19:54:15 on domain   1:    0.54910 elapsed seconds
Timing for main: time 2019-11-26_19:54:30 on domain   1:    0.54902 elapsed seconds
Timing for main: time 2019-11-26_19:54:45 on domain   1:    0.55200 elapsed seconds
Timing for main: time 2019-11-26_19:55:00 on domain   1:    0.55128 elapsed seconds
Timing for main: time 2019-11-26_19:55:15 on domain   1:    0.55120 elapsed seconds
Timing for main: time 2019-11-26_19:55:30 on domain   1:    0.55277 elapsed seconds
Timing for main: time 2019-11-26_19:55:45 on domain   1:    0.55558 elapsed seconds
Timing for main: time 2019-11-26_19:56:00 on domain   1:    0.55692 elapsed seconds
Timing for main: time 2019-11-26_19:56:15 on domain   1:    0.55681 elapsed seconds
Timing for main: time 2019-11-26_19:56:30 on domain   1:    0.55550 elapsed seconds
Timing for main: time 2019-11-26_19:56:45 on domain   1:    0.55552 elapsed seconds
Timing for main: time 2019-11-26_19:57:00 on domain   1:    0.55569 elapsed seconds
Timing for main: time 2019-11-26_19:57:15 on domain   1:    0.55658 elapsed seconds
Timing for main: time 2019-11-26_19:57:30 on domain   1:    0.55918 elapsed seconds
Timing for main: time 2019-11-26_19:57:45 on domain   1:    0.55560 elapsed seconds
Timing for main: time 2019-11-26_19:58:00 on domain   1:    0.55894 elapsed seconds
Timing for main: time 2019-11-26_19:58:15 on domain   1:    0.55759 elapsed seconds
Timing for main: time 2019-11-26_19:58:30 on domain   1:    0.55467 elapsed seconds
Timing for main: time 2019-11-26_19:58:45 on domain   1:    0.55967 elapsed seconds
Timing for main: time 2019-11-26_19:59:00 on domain   1:    0.55973 elapsed seconds
Timing for main: time 2019-11-26_19:59:15 on domain   1:    0.55923 elapsed seconds
Timing for main: time 2019-11-26_19:59:30 on domain   1:    0.55750 elapsed seconds
Timing for main: time 2019-11-26_19:59:45 on domain   1:    0.55820 elapsed seconds
Timing for main: time 2019-11-26_20:00:00 on domain   1:    0.55594 elapsed seconds
 mediation_integrate.G        1249 DATASET=HISTORY
 mediation_integrate.G        1250  grid%id            1  grid%oid            2
Timing for Writing wrfout_d01_2019-11-26_20:00:00 for domain        1:   10.17706 elapsed seconds
Timing for main: time 2019-11-26_20:00:15 on domain   1:   14.38754 elapsed seconds
Timing for main: time 2019-11-26_20:00:30 on domain   1:    0.55047 elapsed seconds
Timing for main: time 2019-11-26_20:00:45 on domain   1:    0.55934 elapsed seconds
Timing for main: time 2019-11-26_20:01:00 on domain   1:    0.56585 elapsed seconds
Timing for main: time 2019-11-26_20:01:15 on domain   1:    0.56024 elapsed seconds
Timing for main: time 2019-11-26_20:01:30 on domain   1:    0.56180 elapsed seconds
Timing for main: time 2019-11-26_20:01:45 on domain   1:    0.56279 elapsed seconds
Timing for main: time 2019-11-26_20:02:00 on domain   1:    0.56349 elapsed seconds
Timing for main: time 2019-11-26_20:02:15 on domain   1:    0.56357 elapsed seconds
Timing for main: time 2019-11-26_20:02:30 on domain   1:    0.55985 elapsed seconds
Timing for main: time 2019-11-26_20:02:45 on domain   1:    0.56159 elapsed seconds
Timing for main: time 2019-11-26_20:03:00 on domain   1:    0.56538 elapsed seconds
Timing for main: time 2019-11-26_20:03:15 on domain   1:    0.56403 elapsed seconds
Timing for main: time 2019-11-26_20:03:30 on domain   1:    0.56119 elapsed seconds
Timing for main: time 2019-11-26_20:03:45 on domain   1:    0.56383 elapsed seconds
Timing for main: time 2019-11-26_20:04:00 on domain   1:    0.56116 elapsed seconds
Timing for main: time 2019-11-26_20:04:15 on domain   1:    0.56383 elapsed seconds
Timing for main: time 2019-11-26_20:04:30 on domain   1:    0.56399 elapsed seconds
Timing for main: time 2019-11-26_20:04:45 on domain   1:    0.56363 elapsed seconds
Timing for main: time 2019-11-26_20:05:00 on domain   1:    0.56204 elapsed seconds
Timing for main: time 2019-11-26_20:05:15 on domain   1:    0.56660 elapsed seconds
Timing for main: time 2019-11-26_20:05:30 on domain   1:    0.56165 elapsed seconds
Timing for main: time 2019-11-26_20:05:45 on domain   1:    0.56422 elapsed seconds
Timing for main: time 2019-11-26_20:06:00 on domain   1:    0.56322 elapsed seconds
Timing for main: time 2019-11-26_20:06:15 on domain   1:    0.56524 elapsed seconds
Timing for main: time 2019-11-26_20:06:30 on domain   1:    0.56317 elapsed seconds
Timing for main: time 2019-11-26_20:06:45 on domain   1:    0.56446 elapsed seconds
Timing for main: time 2019-11-26_20:07:00 on domain   1:    0.56314 elapsed seconds
Timing for main: time 2019-11-26_20:07:15 on domain   1:    0.56683 elapsed seconds
Timing for main: time 2019-11-26_20:07:30 on domain   1:    0.56279 elapsed seconds
Timing for main: time 2019-11-26_20:07:45 on domain   1:    0.56591 elapsed seconds
Timing for main: time 2019-11-26_20:08:00 on domain   1:    0.56653 elapsed seconds
Timing for main: time 2019-11-26_20:08:15 on domain   1:    0.56202 elapsed seconds
Timing for main: time 2019-11-26_20:08:30 on domain   1:    0.56423 elapsed seconds
Timing for main: time 2019-11-26_20:08:45 on domain   1:    0.56528 elapsed seconds
Timing for main: time 2019-11-26_20:09:00 on domain   1:    0.56453 elapsed seconds
Timing for main: time 2019-11-26_20:09:15 on domain   1:    0.56477 elapsed seconds
Timing for main: time 2019-11-26_20:09:30 on domain   1:    0.56577 elapsed seconds
Timing for main: time 2019-11-26_20:09:45 on domain   1:    0.56788 elapsed seconds
Timing for main: time 2019-11-26_20:10:00 on domain   1:    0.56401 elapsed seconds
Timing for main: time 2019-11-26_20:10:15 on domain   1:    4.24254 elapsed seconds
Timing for main: time 2019-11-26_20:10:30 on domain   1:    0.55197 elapsed seconds
Timing for main: time 2019-11-26_20:10:45 on domain   1:    0.55896 elapsed seconds
Timing for main: time 2019-11-26_20:11:00 on domain   1:    0.55816 elapsed seconds
Timing for main: time 2019-11-26_20:11:15 on domain   1:    0.86231 elapsed seconds
Timing for main: time 2019-11-26_20:11:30 on domain   1:    1.01459 elapsed seconds
Timing for main: time 2019-11-26_20:11:45 on domain   1:    0.56597 elapsed seconds
Timing for main: time 2019-11-26_20:12:00 on domain   1:    0.55769 elapsed seconds
Timing for main: time 2019-11-26_20:12:15 on domain   1:    0.56185 elapsed seconds
Timing for main: time 2019-11-26_20:12:30 on domain   1:    0.56029 elapsed seconds
Timing for main: time 2019-11-26_20:12:45 on domain   1:    0.56062 elapsed seconds
Timing for main: time 2019-11-26_20:13:00 on domain   1:    0.56144 elapsed seconds
Timing for main: time 2019-11-26_20:13:15 on domain   1:    0.56103 elapsed seconds
Timing for main: time 2019-11-26_20:13:30 on domain   1:    0.56052 elapsed seconds
Timing for main: time 2019-11-26_20:13:45 on domain   1:    0.55935 elapsed seconds
Timing for main: time 2019-11-26_20:14:00 on domain   1:    0.55921 elapsed seconds
Timing for main: time 2019-11-26_20:14:15 on domain   1:    0.56477 elapsed seconds
Timing for main: time 2019-11-26_20:14:30 on domain   1:    1.44974 elapsed seconds
Timing for main: time 2019-11-26_20:14:45 on domain   1:    0.57953 elapsed seconds
Timing for main: time 2019-11-26_20:15:00 on domain   1:    0.59436 elapsed seconds
Timing for main: time 2019-11-26_20:15:15 on domain   1:    0.54832 elapsed seconds
Timing for main: time 2019-11-26_20:15:30 on domain   1:    0.55853 elapsed seconds
Timing for main: time 2019-11-26_20:15:45 on domain   1:    0.56123 elapsed seconds
Timing for main: time 2019-11-26_20:16:00 on domain   1:    0.56294 elapsed seconds
Timing for main: time 2019-11-26_20:16:15 on domain   1:    0.56176 elapsed seconds
Timing for main: time 2019-11-26_20:16:30 on domain   1:    0.56382 elapsed seconds
Timing for main: time 2019-11-26_20:16:45 on domain   1:    0.55887 elapsed seconds
Timing for main: time 2019-11-26_20:17:00 on domain   1:    0.55910 elapsed seconds
Timing for main: time 2019-11-26_20:17:15 on domain   1:    0.55948 elapsed seconds
Timing for main: time 2019-11-26_20:17:30 on domain   1:    0.56212 elapsed seconds
Timing for main: time 2019-11-26_20:17:45 on domain   1:    0.56383 elapsed seconds
Timing for main: time 2019-11-26_20:18:00 on domain   1:    0.55978 elapsed seconds
Timing for main: time 2019-11-26_20:18:15 on domain   1:    0.56526 elapsed seconds
Timing for main: time 2019-11-26_20:18:30 on domain   1:    0.55709 elapsed seconds
Timing for main: time 2019-11-26_20:18:45 on domain   1:    0.56248 elapsed seconds
Timing for main: time 2019-11-26_20:19:00 on domain   1:    0.55782 elapsed seconds
Timing for main: time 2019-11-26_20:19:15 on domain   1:    0.56397 elapsed seconds
Timing for main: time 2019-11-26_20:19:30 on domain   1:    0.55834 elapsed seconds
Timing for main: time 2019-11-26_20:19:45 on domain   1:    0.56045 elapsed seconds
Timing for main: time 2019-11-26_20:20:00 on domain   1:    0.56256 elapsed seconds
Timing for main: time 2019-11-26_20:20:15 on domain   1:    4.23230 elapsed seconds
Timing for main: time 2019-11-26_20:20:30 on domain   1:    0.54812 elapsed seconds
Timing for main: time 2019-11-26_20:20:45 on domain   1:    0.56456 elapsed seconds
Timing for main: time 2019-11-26_20:21:00 on domain   1:    0.55963 elapsed seconds
Timing for main: time 2019-11-26_20:21:15 on domain   1:    0.56277 elapsed seconds
Timing for main: time 2019-11-26_20:21:30 on domain   1:    0.56158 elapsed seconds
Timing for main: time 2019-11-26_20:21:45 on domain   1:    0.55977 elapsed seconds
Timing for main: time 2019-11-26_20:22:00 on domain   1:    0.56281 elapsed seconds
Timing for main: time 2019-11-26_20:22:15 on domain   1:    0.55884 elapsed seconds
Timing for main: time 2019-11-26_20:22:30 on domain   1:    0.56130 elapsed seconds
Timing for main: time 2019-11-26_20:22:45 on domain   1:    0.56320 elapsed seconds
Timing for main: time 2019-11-26_20:23:00 on domain   1:    0.56384 elapsed seconds
Timing for main: time 2019-11-26_20:23:15 on domain   1:    0.56146 elapsed seconds
Timing for main: time 2019-11-26_20:23:30 on domain   1:    0.56149 elapsed seconds
Timing for main: time 2019-11-26_20:23:45 on domain   1:    0.56020 elapsed seconds
Timing for main: time 2019-11-26_20:24:00 on domain   1:    0.56148 elapsed seconds
Timing for main: time 2019-11-26_20:24:15 on domain   1:    0.56495 elapsed seconds
Timing for main: time 2019-11-26_20:24:30 on domain   1:    0.56164 elapsed seconds
Timing for main: time 2019-11-26_20:24:45 on domain   1:    0.56235 elapsed seconds
Timing for main: time 2019-11-26_20:25:00 on domain   1:    0.55958 elapsed seconds
Timing for main: time 2019-11-26_20:25:15 on domain   1:    0.55994 elapsed seconds
Timing for main: time 2019-11-26_20:25:30 on domain   1:    0.56452 elapsed seconds
Timing for main: time 2019-11-26_20:25:45 on domain   1:    0.56033 elapsed seconds
Timing for main: time 2019-11-26_20:26:00 on domain   1:    0.56060 elapsed seconds
Timing for main: time 2019-11-26_20:26:15 on domain   1:    0.56193 elapsed seconds
Timing for main: time 2019-11-26_20:26:30 on domain   1:    0.55821 elapsed seconds
Timing for main: time 2019-11-26_20:26:45 on domain   1:    0.56249 elapsed seconds
Timing for main: time 2019-11-26_20:27:00 on domain   1:    0.55980 elapsed seconds
Timing for main: time 2019-11-26_20:27:15 on domain   1:    0.55964 elapsed seconds
Timing for main: time 2019-11-26_20:27:30 on domain   1:    0.56209 elapsed seconds
Timing for main: time 2019-11-26_20:27:45 on domain   1:    0.56103 elapsed seconds
Timing for main: time 2019-11-26_20:28:00 on domain   1:    0.55896 elapsed seconds
Timing for main: time 2019-11-26_20:28:15 on domain   1:    0.56175 elapsed seconds
Timing for main: time 2019-11-26_20:28:30 on domain   1:    0.56053 elapsed seconds
Timing for main: time 2019-11-26_20:28:45 on domain   1:    0.56081 elapsed seconds
Timing for main: time 2019-11-26_20:29:00 on domain   1:    0.56030 elapsed seconds
Timing for main: time 2019-11-26_20:29:15 on domain   1:    0.56069 elapsed seconds
Timing for main: time 2019-11-26_20:29:30 on domain   1:    0.56094 elapsed seconds
Timing for main: time 2019-11-26_20:29:45 on domain   1:    0.56222 elapsed seconds
Timing for main: time 2019-11-26_20:30:00 on domain   1:    0.55940 elapsed seconds
Timing for main: time 2019-11-26_20:30:15 on domain   1:    4.24740 elapsed seconds
Timing for main: time 2019-11-26_20:30:30 on domain   1:    0.55297 elapsed seconds
Timing for main: time 2019-11-26_20:30:45 on domain   1:    0.56142 elapsed seconds
Timing for main: time 2019-11-26_20:31:00 on domain   1:    0.56349 elapsed seconds
Timing for main: time 2019-11-26_20:31:15 on domain   1:    0.55844 elapsed seconds
Timing for main: time 2019-11-26_20:31:30 on domain   1:    0.56210 elapsed seconds
Timing for main: time 2019-11-26_20:31:45 on domain   1:    0.56074 elapsed seconds
Timing for main: time 2019-11-26_20:32:00 on domain   1:    0.56276 elapsed seconds
Timing for main: time 2019-11-26_20:32:15 on domain   1:    0.56141 elapsed seconds
Timing for main: time 2019-11-26_20:32:30 on domain   1:    0.56213 elapsed seconds
Timing for main: time 2019-11-26_20:32:45 on domain   1:    0.56142 elapsed seconds
Timing for main: time 2019-11-26_20:33:00 on domain   1:    0.56214 elapsed seconds
Timing for main: time 2019-11-26_20:33:15 on domain   1:    0.56322 elapsed seconds
Timing for main: time 2019-11-26_20:33:30 on domain   1:    0.56035 elapsed seconds
Timing for main: time 2019-11-26_20:33:45 on domain   1:    0.56168 elapsed seconds
Timing for main: time 2019-11-26_20:34:00 on domain   1:    2.34039 elapsed seconds
Timing for main: time 2019-11-26_20:34:15 on domain   1:    0.69996 elapsed seconds
Timing for main: time 2019-11-26_20:34:30 on domain   1:    0.56105 elapsed seconds
Timing for main: time 2019-11-26_20:34:45 on domain   1:    0.56112 elapsed seconds
Timing for main: time 2019-11-26_20:35:00 on domain   1:    0.56224 elapsed seconds
Timing for main: time 2019-11-26_20:35:15 on domain   1:    0.56078 elapsed seconds
Timing for main: time 2019-11-26_20:35:30 on domain   1:    0.56420 elapsed seconds
Timing for main: time 2019-11-26_20:35:45 on domain   1:    0.55966 elapsed seconds
Timing for main: time 2019-11-26_20:36:00 on domain   1:    0.56269 elapsed seconds
Timing for main: time 2019-11-26_20:36:15 on domain   1:    0.56362 elapsed seconds
Timing for main: time 2019-11-26_20:36:30 on domain   1:    0.56130 elapsed seconds
Timing for main: time 2019-11-26_20:36:45 on domain   1:    0.55930 elapsed seconds
Timing for main: time 2019-11-26_20:37:00 on domain   1:    0.56154 elapsed seconds
Timing for main: time 2019-11-26_20:37:15 on domain   1:    0.56094 elapsed seconds
Timing for main: time 2019-11-26_20:37:30 on domain   1:    0.56291 elapsed seconds
Timing for main: time 2019-11-26_20:37:45 on domain   1:    0.56206 elapsed seconds
Timing for main: time 2019-11-26_20:38:00 on domain   1:    0.56190 elapsed seconds
Timing for main: time 2019-11-26_20:38:15 on domain   1:    0.56256 elapsed seconds
Timing for main: time 2019-11-26_20:38:30 on domain   1:    0.56474 elapsed seconds
Timing for main: time 2019-11-26_20:38:45 on domain   1:    0.56366 elapsed seconds
Timing for main: time 2019-11-26_20:39:00 on domain   1:    0.56193 elapsed seconds
Timing for main: time 2019-11-26_20:39:15 on domain   1:    0.56021 elapsed seconds
Timing for main: time 2019-11-26_20:39:30 on domain   1:    0.56508 elapsed seconds
Timing for main: time 2019-11-26_20:39:45 on domain   1:    0.56461 elapsed seconds
Timing for main: time 2019-11-26_20:40:00 on domain   1:    0.56198 elapsed seconds
Timing for main: time 2019-11-26_20:40:15 on domain   1:    4.25097 elapsed seconds
Timing for main: time 2019-11-26_20:40:30 on domain   1:    0.55734 elapsed seconds
Timing for main: time 2019-11-26_20:40:45 on domain   1:    0.55953 elapsed seconds
Timing for main: time 2019-11-26_20:41:00 on domain   1:    0.56200 elapsed seconds
Timing for main: time 2019-11-26_20:41:15 on domain   1:    0.56691 elapsed seconds
Timing for main: time 2019-11-26_20:41:30 on domain   1:    0.56583 elapsed seconds
Timing for main: time 2019-11-26_20:41:45 on domain   1:    0.56473 elapsed seconds
Timing for main: time 2019-11-26_20:42:00 on domain   1:    0.56726 elapsed seconds
Timing for main: time 2019-11-26_20:42:15 on domain   1:    0.56470 elapsed seconds
Timing for main: time 2019-11-26_20:42:30 on domain   1:    0.87631 elapsed seconds
Timing for main: time 2019-11-26_20:42:45 on domain   1:    1.36451 elapsed seconds
Timing for main: time 2019-11-26_20:43:00 on domain   1:    1.14289 elapsed seconds
Timing for main: time 2019-11-26_20:43:15 on domain   1:    1.51508 elapsed seconds
Timing for main: time 2019-11-26_20:43:30 on domain   1:    0.55545 elapsed seconds
Timing for main: time 2019-11-26_20:43:45 on domain   1:    0.56090 elapsed seconds
Timing for main: time 2019-11-26_20:44:00 on domain   1:    0.56420 elapsed seconds
Timing for main: time 2019-11-26_20:44:15 on domain   1:    0.56620 elapsed seconds
Timing for main: time 2019-11-26_20:44:30 on domain   1:    0.56085 elapsed seconds
Timing for main: time 2019-11-26_20:44:45 on domain   1:    0.56596 elapsed seconds
Timing for main: time 2019-11-26_20:45:00 on domain   1:    0.56618 elapsed seconds
Timing for main: time 2019-11-26_20:45:15 on domain   1:    0.56579 elapsed seconds
Timing for main: time 2019-11-26_20:45:30 on domain   1:    0.56387 elapsed seconds
Timing for main: time 2019-11-26_20:45:45 on domain   1:    0.56832 elapsed seconds
Timing for main: time 2019-11-26_20:46:00 on domain   1:    0.56467 elapsed seconds
Timing for main: time 2019-11-26_20:46:15 on domain   1:    0.56449 elapsed seconds
Timing for main: time 2019-11-26_20:46:30 on domain   1:    0.56715 elapsed seconds
Timing for main: time 2019-11-26_20:46:45 on domain   1:    0.56132 elapsed seconds
Timing for main: time 2019-11-26_20:47:00 on domain   1:    0.56623 elapsed seconds
Timing for main: time 2019-11-26_20:47:15 on domain   1:    0.56407 elapsed seconds
Timing for main: time 2019-11-26_20:47:30 on domain   1:    0.56563 elapsed seconds
Timing for main: time 2019-11-26_20:47:45 on domain   1:    0.56388 elapsed seconds
Timing for main: time 2019-11-26_20:48:00 on domain   1:    0.56682 elapsed seconds
Timing for main: time 2019-11-26_20:48:15 on domain   1:    0.56401 elapsed seconds
Timing for main: time 2019-11-26_20:48:30 on domain   1:    0.56760 elapsed seconds
Timing for main: time 2019-11-26_20:48:45 on domain   1:    0.56399 elapsed seconds
Timing for main: time 2019-11-26_20:49:00 on domain   1:    0.56524 elapsed seconds
Timing for main: time 2019-11-26_20:49:15 on domain   1:    0.56139 elapsed seconds
Timing for main: time 2019-11-26_20:49:30 on domain   1:    0.56642 elapsed seconds
Timing for main: time 2019-11-26_20:49:45 on domain   1:    0.56502 elapsed seconds
Timing for main: time 2019-11-26_20:50:00 on domain   1:    0.56271 elapsed seconds
Timing for main: time 2019-11-26_20:50:15 on domain   1:    4.25199 elapsed seconds
Timing for main: time 2019-11-26_20:50:30 on domain   1:    0.55705 elapsed seconds
Timing for main: time 2019-11-26_20:50:45 on domain   1:    0.55897 elapsed seconds
Timing for main: time 2019-11-26_20:51:00 on domain   1:    0.56548 elapsed seconds
Timing for main: time 2019-11-26_20:51:15 on domain   1:    0.56279 elapsed seconds
Timing for main: time 2019-11-26_20:51:30 on domain   1:    0.56296 elapsed seconds
Timing for main: time 2019-11-26_20:51:45 on domain   1:    0.56103 elapsed seconds
Timing for main: time 2019-11-26_20:52:00 on domain   1:    0.56187 elapsed seconds
Timing for main: time 2019-11-26_20:52:15 on domain   1:    0.56423 elapsed seconds
Timing for main: time 2019-11-26_20:52:30 on domain   1:    0.55867 elapsed seconds
Timing for main: time 2019-11-26_20:52:45 on domain   1:    0.56331 elapsed seconds
Timing for main: time 2019-11-26_20:53:00 on domain   1:    0.56385 elapsed seconds
Timing for main: time 2019-11-26_20:53:15 on domain   1:    0.55993 elapsed seconds
Timing for main: time 2019-11-26_20:53:30 on domain   1:    0.56403 elapsed seconds
Timing for main: time 2019-11-26_20:53:45 on domain   1:    0.55964 elapsed seconds
Timing for main: time 2019-11-26_20:54:00 on domain   1:    0.56462 elapsed seconds
Timing for main: time 2019-11-26_20:54:15 on domain   1:    0.56272 elapsed seconds
Timing for main: time 2019-11-26_20:54:30 on domain   1:    0.59657 elapsed seconds
Timing for main: time 2019-11-26_20:54:45 on domain   1:    0.52796 elapsed seconds
Timing for main: time 2019-11-26_20:55:00 on domain   1:    0.56161 elapsed seconds
Timing for main: time 2019-11-26_20:55:15 on domain   1:    0.56123 elapsed seconds
Timing for main: time 2019-11-26_20:55:30 on domain   1:    0.56357 elapsed seconds
Timing for main: time 2019-11-26_20:55:45 on domain   1:    0.56143 elapsed seconds
Timing for main: time 2019-11-26_20:56:00 on domain   1:    0.55926 elapsed seconds
Timing for main: time 2019-11-26_20:56:15 on domain   1:    0.56363 elapsed seconds
Timing for main: time 2019-11-26_20:56:30 on domain   1:    0.56234 elapsed seconds
Timing for main: time 2019-11-26_20:56:45 on domain   1:    0.56049 elapsed seconds
Timing for main: time 2019-11-26_20:57:00 on domain   1:    0.56307 elapsed seconds
Timing for main: time 2019-11-26_20:57:15 on domain   1:    1.37756 elapsed seconds
Timing for main: time 2019-11-26_20:57:30 on domain   1:    0.56260 elapsed seconds
Timing for main: time 2019-11-26_20:57:45 on domain   1:    0.56124 elapsed seconds
Timing for main: time 2019-11-26_20:58:00 on domain   1:    0.55964 elapsed seconds
Timing for main: time 2019-11-26_20:58:15 on domain   1:    0.55981 elapsed seconds
Timing for main: time 2019-11-26_20:58:30 on domain   1:    0.56083 elapsed seconds
Timing for main: time 2019-11-26_20:58:45 on domain   1:    0.56262 elapsed seconds
Timing for main: time 2019-11-26_20:59:00 on domain   1:    0.56240 elapsed seconds
Timing for main: time 2019-11-26_20:59:15 on domain   1:    0.55849 elapsed seconds
Timing for main: time 2019-11-26_20:59:30 on domain   1:    0.56102 elapsed seconds
Timing for main: time 2019-11-26_20:59:45 on domain   1:    0.59785 elapsed seconds
Timing for main: time 2019-11-26_21:00:00 on domain   1:    0.55437 elapsed seconds
 mediation_integrate.G        1249 DATASET=HISTORY
 mediation_integrate.G        1250  grid%id            1  grid%oid            2
Timing for Writing wrfout_d01_2019-11-26_21:00:00 for domain        1:    7.59702 elapsed seconds
 Input data is acceptable to use: wrfbdy_d01
Timing for processing lateral boundary for domain        1:    1.43793 elapsed seconds
Timing for main: time 2019-11-26_21:00:15 on domain   1:   13.22357 elapsed seconds
Timing for main: time 2019-11-26_21:00:30 on domain   1:    0.54959 elapsed seconds
Timing for main: time 2019-11-26_21:00:45 on domain   1:    0.55955 elapsed seconds
Timing for main: time 2019-11-26_21:01:00 on domain   1:    0.56182 elapsed seconds
Timing for main: time 2019-11-26_21:01:15 on domain   1:    0.56039 elapsed seconds
Timing for main: time 2019-11-26_21:01:30 on domain   1:    0.56274 elapsed seconds
Timing for main: time 2019-11-26_21:01:45 on domain   1:    0.55850 elapsed seconds
Timing for main: time 2019-11-26_21:02:00 on domain   1:    0.56163 elapsed seconds
Timing for main: time 2019-11-26_21:02:15 on domain   1:    0.56299 elapsed seconds
Timing for main: time 2019-11-26_21:02:30 on domain   1:    0.56034 elapsed seconds
Timing for main: time 2019-11-26_21:02:45 on domain   1:    0.56231 elapsed seconds
Timing for main: time 2019-11-26_21:03:00 on domain   1:    0.55926 elapsed seconds
Timing for main: time 2019-11-26_21:03:15 on domain   1:    0.56192 elapsed seconds
Timing for main: time 2019-11-26_21:03:30 on domain   1:    0.56146 elapsed seconds
Timing for main: time 2019-11-26_21:03:45 on domain   1:    0.56289 elapsed seconds
Timing for main: time 2019-11-26_21:04:00 on domain   1:    0.56020 elapsed seconds
Timing for main: time 2019-11-26_21:04:15 on domain   1:    0.55913 elapsed seconds
Timing for main: time 2019-11-26_21:04:30 on domain   1:    0.56100 elapsed seconds
Timing for main: time 2019-11-26_21:04:45 on domain   1:    0.55983 elapsed seconds
Timing for main: time 2019-11-26_21:05:00 on domain   1:    0.56323 elapsed seconds
Timing for main: time 2019-11-26_21:05:15 on domain   1:    0.55787 elapsed seconds
Timing for main: time 2019-11-26_21:05:30 on domain   1:    0.56182 elapsed seconds
Timing for main: time 2019-11-26_21:05:45 on domain   1:    0.56210 elapsed seconds
Timing for main: time 2019-11-26_21:06:00 on domain   1:    0.56082 elapsed seconds
Timing for main: time 2019-11-26_21:06:15 on domain   1:    0.55944 elapsed seconds
Timing for main: time 2019-11-26_21:06:30 on domain   1:    0.56280 elapsed seconds
Timing for main: time 2019-11-26_21:06:45 on domain   1:    0.56280 elapsed seconds
Timing for main: time 2019-11-26_21:07:00 on domain   1:    0.55850 elapsed seconds
Timing for main: time 2019-11-26_21:07:15 on domain   1:    0.56119 elapsed seconds
Timing for main: time 2019-11-26_21:07:30 on domain   1:    0.56150 elapsed seconds
Timing for main: time 2019-11-26_21:07:45 on domain   1:    0.56067 elapsed seconds
Timing for main: time 2019-11-26_21:08:00 on domain   1:    0.55970 elapsed seconds
Timing for main: time 2019-11-26_21:08:15 on domain   1:    0.56413 elapsed seconds
Timing for main: time 2019-11-26_21:08:30 on domain   1:    0.55808 elapsed seconds
Timing for main: time 2019-11-26_21:08:45 on domain   1:    0.56304 elapsed seconds
Timing for main: time 2019-11-26_21:09:00 on domain   1:    0.55930 elapsed seconds
Timing for main: time 2019-11-26_21:09:15 on domain   1:    0.55940 elapsed seconds
Timing for main: time 2019-11-26_21:09:30 on domain   1:    0.55943 elapsed seconds
Timing for main: time 2019-11-26_21:09:45 on domain   1:    0.56002 elapsed seconds
Timing for main: time 2019-11-26_21:10:00 on domain   1:    0.55887 elapsed seconds
Timing for main: time 2019-11-26_21:10:15 on domain   1:    4.24035 elapsed seconds
Timing for main: time 2019-11-26_21:10:30 on domain   1:    0.55678 elapsed seconds
Timing for main: time 2019-11-26_21:10:45 on domain   1:    0.55950 elapsed seconds
Timing for main: time 2019-11-26_21:11:00 on domain   1:    0.56023 elapsed seconds
Timing for main: time 2019-11-26_21:11:15 on domain   1:    0.56216 elapsed seconds
Timing for main: time 2019-11-26_21:11:30 on domain   1:    0.56077 elapsed seconds
Timing for main: time 2019-11-26_21:11:45 on domain   1:    0.56029 elapsed seconds
Timing for main: time 2019-11-26_21:12:00 on domain   1:    0.56065 elapsed seconds
Timing for main: time 2019-11-26_21:12:15 on domain   1:    0.56056 elapsed seconds
Timing for main: time 2019-11-26_21:12:30 on domain   1:    0.56107 elapsed seconds
Timing for main: time 2019-11-26_21:12:45 on domain   1:    0.56276 elapsed seconds
Timing for main: time 2019-11-26_21:13:00 on domain   1:    0.55940 elapsed seconds
Timing for main: time 2019-11-26_21:13:15 on domain   1:    0.56263 elapsed seconds
Timing for main: time 2019-11-26_21:13:30 on domain   1:    0.55907 elapsed seconds
Timing for main: time 2019-11-26_21:13:45 on domain   1:    0.55997 elapsed seconds
Timing for main: time 2019-11-26_21:14:00 on domain   1:    0.56029 elapsed seconds
Timing for main: time 2019-11-26_21:14:15 on domain   1:    0.56054 elapsed seconds
Timing for main: time 2019-11-26_21:14:30 on domain   1:    0.55882 elapsed seconds
Timing for main: time 2019-11-26_21:14:45 on domain   1:    0.55936 elapsed seconds
Timing for main: time 2019-11-26_21:15:00 on domain   1:    0.55721 elapsed seconds
Timing for main: time 2019-11-26_21:15:15 on domain   1:    0.55997 elapsed seconds
Timing for main: time 2019-11-26_21:15:30 on domain   1:    0.55794 elapsed seconds
Timing for main: time 2019-11-26_21:15:45 on domain   1:    0.55555 elapsed seconds
Timing for main: time 2019-11-26_21:16:00 on domain   1:    0.55913 elapsed seconds
Timing for main: time 2019-11-26_21:16:15 on domain   1:    0.58154 elapsed seconds
Timing for main: time 2019-11-26_21:16:30 on domain   1:    2.03654 elapsed seconds
Timing for main: time 2019-11-26_21:16:45 on domain   1:    0.78043 elapsed seconds
Timing for main: time 2019-11-26_21:17:00 on domain   1:    0.55419 elapsed seconds
Timing for main: time 2019-11-26_21:17:15 on domain   1:    0.55473 elapsed seconds
Timing for main: time 2019-11-26_21:17:30 on domain   1:    0.55645 elapsed seconds
Timing for main: time 2019-11-26_21:17:45 on domain   1:    0.55951 elapsed seconds
Timing for main: time 2019-11-26_21:18:00 on domain   1:    0.55763 elapsed seconds
Timing for main: time 2019-11-26_21:18:15 on domain   1:    0.55934 elapsed seconds
Timing for main: time 2019-11-26_21:18:30 on domain   1:    0.55931 elapsed seconds
Timing for main: time 2019-11-26_21:18:45 on domain   1:    0.55914 elapsed seconds
Timing for main: time 2019-11-26_21:19:00 on domain   1:    0.56338 elapsed seconds
Timing for main: time 2019-11-26_21:19:15 on domain   1:    0.56160 elapsed seconds
Timing for main: time 2019-11-26_21:19:30 on domain   1:    0.56063 elapsed seconds
Timing for main: time 2019-11-26_21:19:45 on domain   1:    0.56000 elapsed seconds
Timing for main: time 2019-11-26_21:20:00 on domain   1:    0.55967 elapsed seconds
Timing for main: time 2019-11-26_21:20:15 on domain   1:    4.25981 elapsed seconds
Timing for main: time 2019-11-26_21:20:30 on domain   1:    0.55688 elapsed seconds
Timing for main: time 2019-11-26_21:20:45 on domain   1:    0.56430 elapsed seconds
Timing for main: time 2019-11-26_21:21:00 on domain   1:    0.55878 elapsed seconds
Timing for main: time 2019-11-26_21:21:15 on domain   1:    0.56100 elapsed seconds
Timing for main: time 2019-11-26_21:21:30 on domain   1:    0.56048 elapsed seconds
Timing for main: time 2019-11-26_21:21:45 on domain   1:    0.56415 elapsed seconds
Timing for main: time 2019-11-26_21:22:00 on domain   1:    0.56106 elapsed seconds
Timing for main: time 2019-11-26_21:22:15 on domain   1:    0.56665 elapsed seconds
Timing for main: time 2019-11-26_21:22:30 on domain   1:    0.56182 elapsed seconds
Timing for main: time 2019-11-26_21:22:45 on domain   1:    0.56539 elapsed seconds
Timing for main: time 2019-11-26_21:23:00 on domain   1:    0.56293 elapsed seconds
Timing for main: time 2019-11-26_21:23:15 on domain   1:    0.56538 elapsed seconds
Timing for main: time 2019-11-26_21:23:30 on domain   1:    0.56346 elapsed seconds
Timing for main: time 2019-11-26_21:23:45 on domain   1:    0.56620 elapsed seconds
Timing for main: time 2019-11-26_21:24:00 on domain   1:    0.56432 elapsed seconds
Timing for main: time 2019-11-26_21:24:15 on domain   1:    0.56640 elapsed seconds
Timing for main: time 2019-11-26_21:24:30 on domain   1:    0.56311 elapsed seconds
Timing for main: time 2019-11-26_21:24:45 on domain   1:    0.56593 elapsed seconds
Timing for main: time 2019-11-26_21:25:00 on domain   1:    0.56563 elapsed seconds
Timing for main: time 2019-11-26_21:25:15 on domain   1:    1.70294 elapsed seconds
Timing for main: time 2019-11-26_21:25:30 on domain   1:    1.26001 elapsed seconds
Timing for main: time 2019-11-26_21:25:45 on domain   1:    0.53948 elapsed seconds
Timing for main: time 2019-11-26_21:26:00 on domain   1:    0.55669 elapsed seconds
Timing for main: time 2019-11-26_21:26:15 on domain   1:    0.56760 elapsed seconds
Timing for main: time 2019-11-26_21:26:30 on domain   1:    0.56241 elapsed seconds
Timing for main: time 2019-11-26_21:26:45 on domain   1:    0.56751 elapsed seconds
Timing for main: time 2019-11-26_21:27:00 on domain   1:    0.56414 elapsed seconds
Timing for main: time 2019-11-26_21:27:15 on domain   1:    0.56481 elapsed seconds
Timing for main: time 2019-11-26_21:27:30 on domain   1:    0.56431 elapsed seconds
Timing for main: time 2019-11-26_21:27:45 on domain   1:    0.56577 elapsed seconds
Timing for main: time 2019-11-26_21:28:00 on domain   1:    0.56535 elapsed seconds
Timing for main: time 2019-11-26_21:28:15 on domain   1:    0.56711 elapsed seconds
Timing for main: time 2019-11-26_21:28:30 on domain   1:    0.56397 elapsed seconds
Timing for main: time 2019-11-26_21:28:45 on domain   1:    0.56836 elapsed seconds
Timing for main: time 2019-11-26_21:29:00 on domain   1:    0.56440 elapsed seconds
Timing for main: time 2019-11-26_21:29:15 on domain   1:    0.56647 elapsed seconds
Timing for main: time 2019-11-26_21:29:30 on domain   1:    0.56476 elapsed seconds
Timing for main: time 2019-11-26_21:29:45 on domain   1:    0.57046 elapsed seconds
Timing for main: time 2019-11-26_21:30:00 on domain   1:    0.56327 elapsed seconds
Timing for main: time 2019-11-26_21:30:15 on domain   1:    4.31564 elapsed seconds
Timing for main: time 2019-11-26_21:30:30 on domain   1:    0.56312 elapsed seconds
Timing for main: time 2019-11-26_21:30:45 on domain   1:    0.56591 elapsed seconds
Timing for main: time 2019-11-26_21:31:00 on domain   1:    0.56453 elapsed seconds
Timing for main: time 2019-11-26_21:31:15 on domain   1:    0.56760 elapsed seconds
Timing for main: time 2019-11-26_21:31:30 on domain   1:    0.56355 elapsed seconds
Timing for main: time 2019-11-26_21:31:45 on domain   1:    0.56613 elapsed seconds
Timing for main: time 2019-11-26_21:32:00 on domain   1:    0.56672 elapsed seconds
Timing for main: time 2019-11-26_21:32:15 on domain   1:    0.56527 elapsed seconds
Timing for main: time 2019-11-26_21:32:30 on domain   1:    0.56583 elapsed seconds
Timing for main: time 2019-11-26_21:32:45 on domain   1:    0.56668 elapsed seconds
Timing for main: time 2019-11-26_21:33:00 on domain   1:    0.56584 elapsed seconds
Timing for main: time 2019-11-26_21:33:15 on domain   1:    0.56519 elapsed seconds
Timing for main: time 2019-11-26_21:33:30 on domain   1:    0.56529 elapsed seconds
Timing for main: time 2019-11-26_21:33:45 on domain   1:    0.56770 elapsed seconds
Timing for main: time 2019-11-26_21:34:00 on domain   1:    0.56545 elapsed seconds
Timing for main: time 2019-11-26_21:34:15 on domain   1:    0.56719 elapsed seconds
Timing for main: time 2019-11-26_21:34:30 on domain   1:    0.56738 elapsed seconds
Timing for main: time 2019-11-26_21:34:45 on domain   1:    0.56530 elapsed seconds
Timing for main: time 2019-11-26_21:35:00 on domain   1:    0.56715 elapsed seconds
Timing for main: time 2019-11-26_21:35:15 on domain   1:    0.56655 elapsed seconds
Timing for main: time 2019-11-26_21:35:30 on domain   1:    0.56591 elapsed seconds
Timing for main: time 2019-11-26_21:35:45 on domain   1:    0.56791 elapsed seconds
Timing for main: time 2019-11-26_21:36:00 on domain   1:    0.56768 elapsed seconds
Timing for main: time 2019-11-26_21:36:15 on domain   1:    0.56520 elapsed seconds
Timing for main: time 2019-11-26_21:36:30 on domain   1:    0.56694 elapsed seconds
Timing for main: time 2019-11-26_21:36:45 on domain   1:    0.56774 elapsed seconds
Timing for main: time 2019-11-26_21:37:00 on domain   1:    0.56574 elapsed seconds
Timing for main: time 2019-11-26_21:37:15 on domain   1:    0.56726 elapsed seconds
Timing for main: time 2019-11-26_21:37:30 on domain   1:    0.60933 elapsed seconds
Timing for main: time 2019-11-26_21:37:45 on domain   1:    0.52673 elapsed seconds
Timing for main: time 2019-11-26_21:38:00 on domain   1:    0.56759 elapsed seconds
Timing for main: time 2019-11-26_21:38:15 on domain   1:    0.56644 elapsed seconds
Timing for main: time 2019-11-26_21:38:30 on domain   1:    0.56707 elapsed seconds
Timing for main: time 2019-11-26_21:38:45 on domain   1:    0.56923 elapsed seconds
Timing for main: time 2019-11-26_21:39:00 on domain   1:    0.56664 elapsed seconds
Timing for main: time 2019-11-26_21:39:15 on domain   1:    0.56568 elapsed seconds
Timing for main: time 2019-11-26_21:39:30 on domain   1:    0.56658 elapsed seconds
Timing for main: time 2019-11-26_21:39:45 on domain   1:    0.56738 elapsed seconds
Timing for main: time 2019-11-26_21:40:00 on domain   1:    1.39301 elapsed seconds
Timing for main: time 2019-11-26_21:40:15 on domain   1:    4.30845 elapsed seconds
Timing for main: time 2019-11-26_21:40:30 on domain   1:    0.56256 elapsed seconds
Timing for main: time 2019-11-26_21:40:45 on domain   1:    0.57034 elapsed seconds
Timing for main: time 2019-11-26_21:41:00 on domain   1:    0.56734 elapsed seconds
Timing for main: time 2019-11-26_21:41:15 on domain   1:    0.56853 elapsed seconds
Timing for main: time 2019-11-26_21:41:30 on domain   1:    0.56984 elapsed seconds
Timing for main: time 2019-11-26_21:41:45 on domain   1:    0.56771 elapsed seconds
Timing for main: time 2019-11-26_21:42:00 on domain   1:    0.56820 elapsed seconds
Timing for main: time 2019-11-26_21:42:15 on domain   1:    0.57017 elapsed seconds
Timing for main: time 2019-11-26_21:42:30 on domain   1:    1.56617 elapsed seconds
Timing for main: time 2019-11-26_21:42:45 on domain   1:    0.57425 elapsed seconds
Timing for main: time 2019-11-26_21:43:00 on domain   1:    0.56967 elapsed seconds
Timing for main: time 2019-11-26_21:43:15 on domain   1:    0.56784 elapsed seconds
Timing for main: time 2019-11-26_21:43:30 on domain   1:    0.57062 elapsed seconds
Timing for main: time 2019-11-26_21:43:45 on domain   1:    0.57078 elapsed seconds
[...]
Timing for main: time 2019-11-26_23:01:30 on domain   1:    0.57870 elapsed seconds
Timing for main: time 2019-11-26_23:01:45 on domain   1:    0.57896 elapsed seconds
Timing for main: time 2019-11-26_23:02:00 on domain   1:    0.57939 elapsed seconds
Timing for main: time 2019-11-26_23:02:15 on domain   1:    0.58598 elapsed seconds
Timing for main: time 2019-11-26_23:02:30 on domain   1:    0.57706 elapsed seconds
Timing for main: time 2019-11-26_23:02:45 on domain   1:    0.58127 elapsed seconds
Timing for main: time 2019-11-26_23:03:00 on domain   1:    0.57424 elapsed seconds
Timing for main: time 2019-11-26_23:03:15 on domain   1:    0.58272 elapsed seconds
Timing for main: time 2019-11-26_23:03:30 on domain   1:    0.57801 elapsed seconds
Timing for main: time 2019-11-26_23:03:45 on domain   1:    0.57890 elapsed seconds
Timing for main: time 2019-11-26_23:04:00 on domain   1:    0.57739 elapsed seconds
Timing for main: time 2019-11-26_23:04:15 on domain   1:    0.57839 elapsed seconds
Timing for main: time 2019-11-26_23:04:30 on domain   1:    0.58022 elapsed seconds
Timing for main: time 2019-11-26_23:04:45 on domain   1:    0.57786 elapsed seconds
Timing for main: time 2019-11-26_23:05:00 on domain   1:    0.58067 elapsed seconds
Timing for main: time 2019-11-26_23:05:15 on domain   1:    0.57648 elapsed seconds
Timing for main: time 2019-11-26_23:05:30 on domain   1:    0.57625 elapsed seconds
Timing for main: time 2019-11-26_23:05:45 on domain   1:    0.58142 elapsed seconds
Timing for main: time 2019-11-26_23:06:00 on domain   1:    0.57841 elapsed seconds
Timing for main: time 2019-11-26_23:06:15 on domain   1:    0.58108 elapsed seconds
Timing for main: time 2019-11-26_23:06:30 on domain   1:    0.57881 elapsed seconds
Timing for main: time 2019-11-26_23:06:45 on domain   1:    0.57808 elapsed seconds
Timing for main: time 2019-11-26_23:07:00 on domain   1:    0.57836 elapsed seconds
Timing for main: time 2019-11-26_23:07:15 on domain   1:    0.57999 elapsed seconds
Timing for main: time 2019-11-26_23:07:30 on domain   1:    0.57555 elapsed seconds
Timing for main: time 2019-11-26_23:07:45 on domain   1:    0.58221 elapsed seconds
Timing for main: time 2019-11-26_23:08:00 on domain   1:    0.57687 elapsed seconds
Timing for main: time 2019-11-26_23:08:15 on domain   1:    0.58224 elapsed seconds
Timing for main: time 2019-11-26_23:08:30 on domain   1:    0.57757 elapsed seconds
Timing for main: time 2019-11-26_23:08:45 on domain   1:    0.57894 elapsed seconds
Timing for main: time 2019-11-26_23:09:00 on domain   1:    0.57783 elapsed seconds
Timing for main: time 2019-11-26_23:09:15 on domain   1:    0.57878 elapsed seconds
Timing for main: time 2019-11-26_23:09:30 on domain   1:    0.57732 elapsed seconds
Timing for main: time 2019-11-26_23:09:45 on domain   1:    0.58164 elapsed seconds
Timing for main: time 2019-11-26_23:10:00 on domain   1:    0.57647 elapsed seconds
Timing for main: time 2019-11-26_23:10:15 on domain   1:    4.28316 elapsed seconds
Timing for main: time 2019-11-26_23:10:30 on domain   1:    0.57668 elapsed seconds
Timing for main: time 2019-11-26_23:10:45 on domain   1:    0.57803 elapsed seconds
Timing for main: time 2019-11-26_23:11:00 on domain   1:    0.57927 elapsed seconds
Timing for main: time 2019-11-26_23:11:15 on domain   1:    0.57608 elapsed seconds
Timing for main: time 2019-11-26_23:11:30 on domain   1:    0.57497 elapsed seconds
Timing for main: time 2019-11-26_23:11:45 on domain   1:    0.57956 elapsed seconds
Timing for main: time 2019-11-26_23:12:00 on domain   1:    0.58034 elapsed seconds
Timing for main: time 2019-11-26_23:12:15 on domain   1:    0.57945 elapsed seconds
Timing for main: time 2019-11-26_23:12:30 on domain   1:    0.57664 elapsed seconds
Timing for main: time 2019-11-26_23:12:45 on domain   1:    0.61496 elapsed seconds
Timing for main: time 2019-11-26_23:13:00 on domain   1:    2.00718 elapsed seconds
Timing for main: time 2019-11-26_23:13:15 on domain   1:    0.96936 elapsed seconds
Timing for main: time 2019-11-26_23:13:30 on domain   1:    0.56811 elapsed seconds
Timing for main: time 2019-11-26_23:13:45 on domain   1:    0.58061 elapsed seconds
Timing for main: time 2019-11-26_23:14:00 on domain   1:    0.57410 elapsed seconds
Timing for main: time 2019-11-26_23:14:15 on domain   1:    0.57937 elapsed seconds
Timing for main: time 2019-11-26_23:14:30 on domain   1:    0.57712 elapsed seconds
Timing for main: time 2019-11-26_23:14:45 on domain   1:    0.57789 elapsed seconds
Timing for main: time 2019-11-26_23:15:00 on domain   1:    0.57712 elapsed seconds
Timing for main: time 2019-11-26_23:15:15 on domain   1:    0.57765 elapsed seconds
Timing for main: time 2019-11-26_23:15:30 on domain   1:    0.57766 elapsed seconds
Timing for main: time 2019-11-26_23:15:45 on domain   1:    0.57872 elapsed seconds
Timing for main: time 2019-11-26_23:16:00 on domain   1:    0.57635 elapsed seconds
Timing for main: time 2019-11-26_23:16:15 on domain   1:    0.57885 elapsed seconds
Timing for main: time 2019-11-26_23:16:30 on domain   1:    0.57699 elapsed seconds
Timing for main: time 2019-11-26_23:16:45 on domain   1:    0.57816 elapsed seconds
Timing for main: time 2019-11-26_23:17:00 on domain   1:    0.57657 elapsed seconds
Timing for main: time 2019-11-26_23:17:15 on domain   1:    0.57792 elapsed seconds
Timing for main: time 2019-11-26_23:17:30 on domain   1:    0.57670 elapsed seconds
Timing for main: time 2019-11-26_23:17:45 on domain   1:    0.57665 elapsed seconds
Timing for main: time 2019-11-26_23:18:00 on domain   1:    0.57643 elapsed seconds
Timing for main: time 2019-11-26_23:18:15 on domain   1:    0.57794 elapsed seconds
Timing for main: time 2019-11-26_23:18:30 on domain   1:    0.57550 elapsed seconds
Timing for main: time 2019-11-26_23:18:45 on domain   1:    0.57851 elapsed seconds
Timing for main: time 2019-11-26_23:19:00 on domain   1:    0.57410 elapsed seconds
Timing for main: time 2019-11-26_23:19:15 on domain   1:    0.57852 elapsed seconds
Timing for main: time 2019-11-26_23:19:30 on domain   1:    0.57560 elapsed seconds
Timing for main: time 2019-11-26_23:19:45 on domain   1:    0.57921 elapsed seconds
Timing for main: time 2019-11-26_23:20:00 on domain   1:    0.57576 elapsed seconds
Timing for main: time 2019-11-26_23:20:15 on domain   1:    4.24892 elapsed seconds
Timing for main: time 2019-11-26_23:20:30 on domain   1:    0.56314 elapsed seconds
Timing for main: time 2019-11-26_23:20:45 on domain   1:    0.57724 elapsed seconds
Timing for main: time 2019-11-26_23:21:00 on domain   1:    0.57808 elapsed seconds
Timing for main: time 2019-11-26_23:21:15 on domain   1:    0.58052 elapsed seconds
Timing for main: time 2019-11-26_23:21:30 on domain   1:    0.95292 elapsed seconds
Timing for main: time 2019-11-26_23:21:45 on domain   1:    1.68271 elapsed seconds
Timing for main: time 2019-11-26_23:22:00 on domain   1:    0.50211 elapsed seconds
Timing for main: time 2019-11-26_23:22:15 on domain   1:    0.55966 elapsed seconds
Timing for main: time 2019-11-26_23:22:30 on domain   1:    0.57921 elapsed seconds
Timing for main: time 2019-11-26_23:22:45 on domain   1:    0.57955 elapsed seconds
Timing for main: time 2019-11-26_23:23:00 on domain   1:    0.57904 elapsed seconds
Timing for main: time 2019-11-26_23:23:15 on domain   1:    0.57887 elapsed seconds
Timing for main: time 2019-11-26_23:23:30 on domain   1:    0.57931 elapsed seconds
Timing for main: time 2019-11-26_23:23:45 on domain   1:    0.58007 elapsed seconds
Timing for main: time 2019-11-26_23:24:00 on domain   1:    1.85588 elapsed seconds
Timing for main: time 2019-11-26_23:24:15 on domain   1:    1.09332 elapsed seconds
Timing for main: time 2019-11-26_23:24:30 on domain   1:    0.56159 elapsed seconds
Timing for main: time 2019-11-26_23:24:45 on domain   1:    0.57985 elapsed seconds
Timing for main: time 2019-11-26_23:25:00 on domain   1:    0.57998 elapsed seconds
Timing for main: time 2019-11-26_23:25:15 on domain   1:    0.57886 elapsed seconds
Timing for main: time 2019-11-26_23:25:30 on domain   1:    0.57900 elapsed seconds
Timing for main: time 2019-11-26_23:25:45 on domain   1:    0.58120 elapsed seconds
Timing for main: time 2019-11-26_23:26:00 on domain   1:    0.58145 elapsed seconds
Timing for main: time 2019-11-26_23:26:15 on domain   1:    0.58122 elapsed seconds
Timing for main: time 2019-11-26_23:26:30 on domain   1:    0.58011 elapsed seconds
Timing for main: time 2019-11-26_23:26:45 on domain   1:    0.57884 elapsed seconds
Timing for main: time 2019-11-26_23:27:00 on domain   1:    0.57777 elapsed seconds
Timing for main: time 2019-11-26_23:27:15 on domain   1:    0.58211 elapsed seconds
Timing for main: time 2019-11-26_23:27:30 on domain   1:    0.58005 elapsed seconds
Timing for main: time 2019-11-26_23:27:45 on domain   1:    0.57875 elapsed seconds
Timing for main: time 2019-11-26_23:28:00 on domain   1:    0.58104 elapsed seconds
Timing for main: time 2019-11-26_23:28:15 on domain   1:    0.58024 elapsed seconds
Timing for main: time 2019-11-26_23:28:30 on domain   1:    0.57875 elapsed seconds
Timing for main: time 2019-11-26_23:28:45 on domain   1:    0.58066 elapsed seconds
Timing for main: time 2019-11-26_23:29:00 on domain   1:    0.58058 elapsed seconds
Timing for main: time 2019-11-26_23:29:15 on domain   1:    0.58096 elapsed seconds
Timing for main: time 2019-11-26_23:29:30 on domain   1:    0.58044 elapsed seconds
Timing for main: time 2019-11-26_23:29:45 on domain   1:    0.58191 elapsed seconds
Timing for main: time 2019-11-26_23:30:00 on domain   1:    0.57971 elapsed seconds
Timing for main: time 2019-11-26_23:30:15 on domain   1:    4.24579 elapsed seconds
Timing for main: time 2019-11-26_23:30:30 on domain   1:    0.58504 elapsed seconds
Timing for main: time 2019-11-26_23:30:45 on domain   1:    0.55585 elapsed seconds
Timing for main: time 2019-11-26_23:31:00 on domain   1:    0.58410 elapsed seconds
Timing for main: time 2019-11-26_23:31:15 on domain   1:    0.58339 elapsed seconds
Timing for main: time 2019-11-26_23:31:30 on domain   1:    0.58452 elapsed seconds
Timing for main: time 2019-11-26_23:31:45 on domain   1:    0.58343 elapsed seconds
Timing for main: time 2019-11-26_23:32:00 on domain   1:    0.58440 elapsed seconds
Timing for main: time 2019-11-26_23:32:15 on domain   1:    0.58084 elapsed seconds
Timing for main: time 2019-11-26_23:32:30 on domain   1:    0.58588 elapsed seconds
Timing for main: time 2019-11-26_23:32:45 on domain   1:    0.61269 elapsed seconds
Timing for main: time 2019-11-26_23:33:00 on domain   1:    1.39576 elapsed seconds
Timing for main: time 2019-11-26_23:33:15 on domain   1:    0.58377 elapsed seconds
Timing for main: time 2019-11-26_23:33:30 on domain   1:    0.60150 elapsed seconds
Timing for main: time 2019-11-26_23:33:45 on domain   1:    0.58483 elapsed seconds
Timing for main: time 2019-11-26_23:34:00 on domain   1:    0.58404 elapsed seconds
Timing for main: time 2019-11-26_23:34:15 on domain   1:    0.58560 elapsed seconds
Timing for main: time 2019-11-26_23:34:30 on domain   1:    0.58558 elapsed seconds
Timing for main: time 2019-11-26_23:34:45 on domain   1:    0.58538 elapsed seconds
Timing for main: time 2019-11-26_23:35:00 on domain   1:    0.58464 elapsed seconds
Timing for main: time 2019-11-26_23:35:15 on domain   1:    0.58224 elapsed seconds
Timing for main: time 2019-11-26_23:35:30 on domain   1:    0.58458 elapsed seconds
Timing for main: time 2019-11-26_23:35:45 on domain   1:    0.58447 elapsed seconds
Timing for main: time 2019-11-26_23:36:00 on domain   1:    0.58364 elapsed seconds
Timing for main: time 2019-11-26_23:36:15 on domain   1:    0.58688 elapsed seconds
Timing for main: time 2019-11-26_23:36:30 on domain   1:    0.58676 elapsed seconds
Timing for main: time 2019-11-26_23:36:45 on domain   1:    0.58227 elapsed seconds
Timing for main: time 2019-11-26_23:37:00 on domain   1:    0.58436 elapsed seconds
Timing for main: time 2019-11-26_23:37:15 on domain   1:    0.58413 elapsed seconds
Timing for main: time 2019-11-26_23:37:30 on domain   1:    0.58633 elapsed seconds
Timing for main: time 2019-11-26_23:37:45 on domain   1:    0.58322 elapsed seconds
Timing for main: time 2019-11-26_23:38:00 on domain   1:    0.58511 elapsed seconds
Timing for main: time 2019-11-26_23:38:15 on domain   1:    0.58395 elapsed seconds
Timing for main: time 2019-11-26_23:38:30 on domain   1:    0.58394 elapsed seconds
Timing for main: time 2019-11-26_23:38:45 on domain   1:    0.58475 elapsed seconds
Timing for main: time 2019-11-26_23:39:00 on domain   1:    0.58364 elapsed seconds
Timing for main: time 2019-11-26_23:39:15 on domain   1:    0.58327 elapsed seconds
Timing for main: time 2019-11-26_23:39:30 on domain   1:    0.58329 elapsed seconds
Timing for main: time 2019-11-26_23:39:45 on domain   1:    0.58337 elapsed seconds
Timing for main: time 2019-11-26_23:40:00 on domain   1:    0.58507 elapsed seconds
Timing for main: time 2019-11-26_23:40:15 on domain   1:    4.57941 elapsed seconds
Timing for main: time 2019-11-26_23:40:30 on domain   1:    0.58022 elapsed seconds
Timing for main: time 2019-11-26_23:40:45 on domain   1:    0.58589 elapsed seconds
Timing for main: time 2019-11-26_23:41:00 on domain   1:    0.58311 elapsed seconds
Timing for main: time 2019-11-26_23:41:15 on domain   1:    0.58606 elapsed seconds
Timing for main: time 2019-11-26_23:41:30 on domain   1:    0.58496 elapsed seconds
Timing for main: time 2019-11-26_23:41:45 on domain   1:    0.58702 elapsed seconds
Timing for main: time 2019-11-26_23:42:00 on domain   1:    0.58312 elapsed seconds
Timing for main: time 2019-11-26_23:42:15 on domain   1:    0.58560 elapsed seconds
Timing for main: time 2019-11-26_23:42:30 on domain   1:    0.58437 elapsed seconds
Timing for main: time 2019-11-26_23:42:45 on domain   1:    0.58482 elapsed seconds
Timing for main: time 2019-11-26_23:43:00 on domain   1:    0.58425 elapsed seconds
Timing for main: time 2019-11-26_23:43:15 on domain   1:    0.58312 elapsed seconds
Timing for main: time 2019-11-26_23:43:30 on domain   1:    0.58396 elapsed seconds
Timing for main: time 2019-11-26_23:43:45 on domain   1:    0.58196 elapsed seconds
Timing for main: time 2019-11-26_23:44:00 on domain   1:    0.58499 elapsed seconds
Timing for main: time 2019-11-26_23:44:15 on domain   1:    0.58391 elapsed seconds
Timing for main: time 2019-11-26_23:44:30 on domain   1:    0.58081 elapsed seconds
Timing for main: time 2019-11-26_23:44:45 on domain   1:    0.58394 elapsed seconds
Timing for main: time 2019-11-26_23:45:00 on domain   1:    0.58115 elapsed seconds
Timing for main: time 2019-11-26_23:45:15 on domain   1:    0.58465 elapsed seconds
Timing for main: time 2019-11-26_23:45:30 on domain   1:    0.58212 elapsed seconds
Timing for main: time 2019-11-26_23:45:45 on domain   1:    0.58242 elapsed seconds
Timing for main: time 2019-11-26_23:46:00 on domain   1:    0.58123 elapsed seconds
Timing for main: time 2019-11-26_23:46:15 on domain   1:    0.58470 elapsed seconds
Timing for main: time 2019-11-26_23:46:30 on domain   1:    0.58009 elapsed seconds
Timing for main: time 2019-11-26_23:46:45 on domain   1:    0.58450 elapsed seconds
Timing for main: time 2019-11-26_23:47:00 on domain   1:    0.57955 elapsed seconds
Timing for main: time 2019-11-26_23:47:15 on domain   1:    0.58541 elapsed seconds
Timing for main: time 2019-11-26_23:47:30 on domain   1:    0.57971 elapsed seconds
Timing for main: time 2019-11-26_23:47:45 on domain   1:    0.58450 elapsed seconds
Timing for main: time 2019-11-26_23:48:00 on domain   1:    0.57929 elapsed seconds
Timing for main: time 2019-11-26_23:48:15 on domain   1:    0.58499 elapsed seconds
Timing for main: time 2019-11-26_23:48:30 on domain   1:    0.58014 elapsed seconds
Timing for main: time 2019-11-26_23:48:45 on domain   1:    0.58183 elapsed seconds
Timing for main: time 2019-11-26_23:49:00 on domain   1:    0.57978 elapsed seconds
Timing for main: time 2019-11-26_23:49:15 on domain   1:    0.58390 elapsed seconds
Timing for main: time 2019-11-26_23:49:30 on domain   1:    0.58168 elapsed seconds
Timing for main: time 2019-11-26_23:49:45 on domain   1:    0.58028 elapsed seconds
Timing for main: time 2019-11-26_23:50:00 on domain   1:    0.58045 elapsed seconds
Timing for main: time 2019-11-26_23:50:15 on domain   1:    4.28487 elapsed seconds
Timing for main: time 2019-11-26_23:50:30 on domain   1:    0.56289 elapsed seconds
Timing for main: time 2019-11-26_23:50:45 on domain   1:    0.57720 elapsed seconds
Timing for main: time 2019-11-26_23:51:00 on domain   1:    0.58309 elapsed seconds
Timing for main: time 2019-11-26_23:51:15 on domain   1:    0.57749 elapsed seconds
Timing for main: time 2019-11-26_23:51:30 on domain   1:    0.57666 elapsed seconds
Timing for main: time 2019-11-26_23:51:45 on domain   1:    0.58035 elapsed seconds
Timing for main: time 2019-11-26_23:52:00 on domain   1:    0.57868 elapsed seconds
Timing for main: time 2019-11-26_23:52:15 on domain   1:    0.58153 elapsed seconds
Timing for main: time 2019-11-26_23:52:30 on domain   1:    0.57846 elapsed seconds
Timing for main: time 2019-11-26_23:52:45 on domain   1:    0.57934 elapsed seconds
Timing for main: time 2019-11-26_23:53:00 on domain   1:    0.57946 elapsed seconds
Timing for main: time 2019-11-26_23:53:15 on domain   1:    0.58343 elapsed seconds
Timing for main: time 2019-11-26_23:53:30 on domain   1:    0.57876 elapsed seconds
Timing for main: time 2019-11-26_23:53:45 on domain   1:    0.58177 elapsed seconds
Timing for main: time 2019-11-26_23:54:00 on domain   1:    0.58026 elapsed seconds
Timing for main: time 2019-11-26_23:54:15 on domain   1:    0.58201 elapsed seconds
Timing for main: time 2019-11-26_23:54:30 on domain   1:    0.57889 elapsed seconds
Timing for main: time 2019-11-26_23:54:45 on domain   1:    0.58266 elapsed seconds
Timing for main: time 2019-11-26_23:55:00 on domain   1:    0.57906 elapsed seconds
Timing for main: time 2019-11-26_23:55:15 on domain   1:    0.58265 elapsed seconds
Timing for main: time 2019-11-26_23:55:30 on domain   1:    0.58032 elapsed seconds
Timing for main: time 2019-11-26_23:55:45 on domain   1:    0.58014 elapsed seconds
Timing for main: time 2019-11-26_23:56:00 on domain   1:    0.57956 elapsed seconds
Timing for main: time 2019-11-26_23:56:15 on domain   1:    0.58018 elapsed seconds
Timing for main: time 2019-11-26_23:56:30 on domain   1:    0.58208 elapsed seconds
Timing for main: time 2019-11-26_23:56:45 on domain   1:    0.57986 elapsed seconds
Timing for main: time 2019-11-26_23:57:00 on domain   1:    0.58179 elapsed seconds
Timing for main: time 2019-11-26_23:57:15 on domain   1:    0.58035 elapsed seconds
Timing for main: time 2019-11-26_23:57:30 on domain   1:    0.57927 elapsed seconds
Timing for main: time 2019-11-26_23:57:45 on domain   1:    1.79061 elapsed seconds
Timing for main: time 2019-11-26_23:58:00 on domain   1:    1.24935 elapsed seconds
Timing for main: time 2019-11-26_23:58:15 on domain   1:    0.56465 elapsed seconds
Timing for main: time 2019-11-26_23:58:30 on domain   1:    0.58174 elapsed seconds
Timing for main: time 2019-11-26_23:58:45 on domain   1:    0.58119 elapsed seconds
Timing for main: time 2019-11-26_23:59:00 on domain   1:    0.57921 elapsed seconds
Timing for main: time 2019-11-26_23:59:15 on domain   1:    0.58124 elapsed seconds
Timing for main: time 2019-11-26_23:59:30 on domain   1:    0.58052 elapsed seconds
Timing for main: time 2019-11-26_23:59:45 on domain   1:    0.58349 elapsed seconds
Timing for main: time 2019-11-27_00:00:00 on domain   1:    0.58072 elapsed seconds
 mediation_integrate.G        1249 DATASET=HISTORY
 mediation_integrate.G        1250  grid%id            1  grid%oid            2
Timing for Writing wrfout_d01_2019-11-27_00:00:00 for domain        1:    6.75288 elapsed seconds
wrf: SUCCESS COMPLETE WRF
