taskid: 0 hostname: x1006c0s2b1n0
 module_io_quilt_old.F        2931 F
Quilting with   1 groups of   0 I/O tasks.
 Ntasks in X           16 , ntasks in Y           24
*************************************
Configuring physics suite 'conus'

         mp_physics:      8
         cu_physics:      0*
      ra_lw_physics:      4
      ra_sw_physics:      4
     bl_pbl_physics:      2
  sf_sfclay_physics:      2
 sf_surface_physics:      2

(* = option overrides suite setting)
*************************************
Domain # 1: dx =  2500.000 m
WRF V4.7.1 MODEL
No git found or not a git repository, git commit version not available.
 *************************************
 Parent domain
 ids,ide,jds,jde            1        1501           1        1201
 ims,ime,jms,jme           -4         101          -4          57
 ips,ipe,jps,jpe            1          94           1          50
 *************************************
DYNAMICS OPTION: Eulerian Mass Coordinate
 alloc_space_field: domain            1 ,             223613180  bytes allocated
med_initialdata_input: calling input_input
 Input data is acceptable to use: wrfinput_d01
 CURRENT DATE          = 2019-11-26_18:00:00
 SIMULATION START DATE = 2019-11-26_18:00:00
Timing for processing wrfinput file (stream 0) for domain        1:   35.78500 elapsed seconds
Max map factor in domain 1 =  1.02. Scale the dt in the model accordingly.
 D01: Time step                              =    15.0000000      (s)
 D01: Grid Distance                          =    2.50000000      (km)
 D01: Grid Distance Ratio dt/dx              =    6.00000000      (s/km)
 D01: Ratio Including Maximum Map Factor     =    6.13815594      (s/km)
 D01: NML defined reasonable_time_step_ratio =    6.00000000
 Climate GHG input from file from year         1765  to         2499
 CO2   range =    277.91300000000001        579.26400000000001       ppm
 N2O   range =    274.37200000000001        359.79800000000000       ppb
 CH4   range =    738.98599999999999        997.31100000000004       ppb
 CFC11 range =    0.0000000000000000        1.4000000000000000E-002  ppt
 CFC12 range =    0.0000000000000000        2.8809999999999998       ppt
 Normal ending of CAMtr_volume_mixing_ratio file
 GHG annual values from CAM trace gas file
 Year =         2019 , Julian day =          330
 CO2   =    4.1280616288937283E-004  volume mixing ratio
 N2O   =    3.3164731848847696E-007  volume mixing ratio
 CH4   =    1.9046224215321381E-006  volume mixing ratio
 CFC11 =    2.1972312207550427E-010  volume mixing ratio
 CFC12 =    4.9756474391800364E-010  volume mixing ratio
INPUT LandUse = "MODIFIED_IGBP_MODIS_NOAH"
 LANDUSE TYPE = "MODIFIED_IGBP_MODIS_NOAH" FOUND          61  CATEGORIES           2  SEASONS WATER CATEGORY =           17  SNOW CATEGORY =           15
INITIALIZE THREE Noah LSM RELATED TABLES
Skipping over LUTYPE = USGS
 LANDUSE TYPE = MODIFIED_IGBP_MODIS_NOAH FOUND          20  CATEGORIES
 INPUT SOIL TEXTURE CLASSIFICATION = STAS
 SOIL TEXTURE CLASSIFICATION = STAS FOUND          19  CATEGORIES
ThompMP: computing qr_acr_qg table: qr_acr_qg_V4.dat
Timing for table computation qr_acr_qg_V4.dat:    2.04640 elapsed seconds
Writing qr_acr_qg_V4.dat     in Thompson MP init
ThompMP: read qr_acr_qsV2.dat instead of computing
ThompMP: read freezeH2O.dat instead of computing
 mediation_integrate.G        1249 DATASET=HISTORY
 mediation_integrate.G        1250  grid%id            1  grid%oid            1
Timing for Writing wrfout_d01_2019-11-26_18:00:00 for domain        1:    5.79199 elapsed seconds
 Input data is acceptable to use: wrfbdy_d01
Timing for processing lateral boundary for domain        1:    1.31221 elapsed seconds
WRF NUMBER OF TILES FROM OMP_GET_MAX_THREADS =   1
 Tile Strategy is not specified. Assuming 1D-Y
WRF TILE   1 IS      1 IE     94 JS      1 JE     50
WRF NUMBER OF TILES =   1
 ----------------------------------------
 W-DAMPING  BEGINS AT W-COURANT NUMBER =    1.00000000
 ----------------------------------------
Timing for main: time 2019-11-26_18:00:15 on domain   1:   14.56699 elapsed seconds
Timing for main: time 2019-11-26_18:00:30 on domain   1:    0.95224 elapsed seconds
Timing for main: time 2019-11-26_18:00:45 on domain   1:    0.94180 elapsed seconds
Timing for main: time 2019-11-26_18:01:00 on domain   1:    0.93653 elapsed seconds
Timing for main: time 2019-11-26_18:01:15 on domain   1:    0.93630 elapsed seconds
Timing for main: time 2019-11-26_18:01:30 on domain   1:    0.93993 elapsed seconds
Timing for main: time 2019-11-26_18:01:45 on domain   1:    0.94221 elapsed seconds
Timing for main: time 2019-11-26_18:02:00 on domain   1:    0.94487 elapsed seconds
Timing for main: time 2019-11-26_18:02:15 on domain   1:    0.94163 elapsed seconds
Timing for main: time 2019-11-26_18:02:30 on domain   1:    0.94824 elapsed seconds
Timing for main: time 2019-11-26_18:02:45 on domain   1:    0.94037 elapsed seconds
Timing for main: time 2019-11-26_18:03:00 on domain   1:    0.94071 elapsed seconds
Timing for main: time 2019-11-26_18:03:15 on domain   1:    0.94212 elapsed seconds
Timing for main: time 2019-11-26_18:03:30 on domain   1:    0.94078 elapsed seconds
Timing for main: time 2019-11-26_18:03:45 on domain   1:    0.94666 elapsed seconds
Timing for main: time 2019-11-26_18:04:00 on domain   1:    0.93952 elapsed seconds
Timing for main: time 2019-11-26_18:04:15 on domain   1:    0.94604 elapsed seconds
Timing for main: time 2019-11-26_18:04:30 on domain   1:    0.94516 elapsed seconds
Timing for main: time 2019-11-26_18:04:45 on domain   1:    0.94615 elapsed seconds
Timing for main: time 2019-11-26_18:05:00 on domain   1:    0.94822 elapsed seconds
Timing for main: time 2019-11-26_18:05:15 on domain   1:    0.94600 elapsed seconds
Timing for main: time 2019-11-26_18:05:30 on domain   1:    0.94605 elapsed seconds
Timing for main: time 2019-11-26_18:05:45 on domain   1:    0.94710 elapsed seconds
Timing for main: time 2019-11-26_18:06:00 on domain   1:    0.94660 elapsed seconds
Timing for main: time 2019-11-26_18:06:15 on domain   1:    0.95021 elapsed seconds
Timing for main: time 2019-11-26_18:06:30 on domain   1:    0.94357 elapsed seconds
Timing for main: time 2019-11-26_18:06:45 on domain   1:    0.94780 elapsed seconds
Timing for main: time 2019-11-26_18:07:00 on domain   1:    0.94715 elapsed seconds
Timing for main: time 2019-11-26_18:07:15 on domain   1:    0.94852 elapsed seconds
Timing for main: time 2019-11-26_18:07:30 on domain   1:    0.95111 elapsed seconds
Timing for main: time 2019-11-26_18:07:45 on domain   1:    0.95059 elapsed seconds
Timing for main: time 2019-11-26_18:08:00 on domain   1:    0.95144 elapsed seconds
Timing for main: time 2019-11-26_18:08:15 on domain   1:    0.94584 elapsed seconds
Timing for main: time 2019-11-26_18:08:30 on domain   1:    0.95202 elapsed seconds
Timing for main: time 2019-11-26_18:08:45 on domain   1:    0.95196 elapsed seconds
Timing for main: time 2019-11-26_18:09:00 on domain   1:    0.94997 elapsed seconds
Timing for main: time 2019-11-26_18:09:15 on domain   1:    0.95461 elapsed seconds
Timing for main: time 2019-11-26_18:09:30 on domain   1:    0.95206 elapsed seconds
Timing for main: time 2019-11-26_18:09:45 on domain   1:    0.95256 elapsed seconds
Timing for main: time 2019-11-26_18:10:00 on domain   1:    0.95128 elapsed seconds
Timing for main: time 2019-11-26_18:10:15 on domain   1:    7.64698 elapsed seconds
Timing for main: time 2019-11-26_18:10:30 on domain   1:    0.95337 elapsed seconds
Timing for main: time 2019-11-26_18:10:45 on domain   1:    0.95285 elapsed seconds
Timing for main: time 2019-11-26_18:11:00 on domain   1:    0.95329 elapsed seconds
Timing for main: time 2019-11-26_18:11:15 on domain   1:    0.94848 elapsed seconds
Timing for main: time 2019-11-26_18:11:30 on domain   1:    0.95286 elapsed seconds
Timing for main: time 2019-11-26_18:11:45 on domain   1:    0.95135 elapsed seconds
Timing for main: time 2019-11-26_18:12:00 on domain   1:    0.95378 elapsed seconds
Timing for main: time 2019-11-26_18:12:15 on domain   1:    0.94965 elapsed seconds
Timing for main: time 2019-11-26_18:12:30 on domain   1:    0.95014 elapsed seconds
Timing for main: time 2019-11-26_18:12:45 on domain   1:    0.95098 elapsed seconds
Timing for main: time 2019-11-26_18:13:00 on domain   1:    0.94947 elapsed seconds
Timing for main: time 2019-11-26_18:13:15 on domain   1:    0.95382 elapsed seconds
Timing for main: time 2019-11-26_18:13:30 on domain   1:    0.95015 elapsed seconds
Timing for main: time 2019-11-26_18:13:45 on domain   1:    0.94897 elapsed seconds
Timing for main: time 2019-11-26_18:14:00 on domain   1:    0.95153 elapsed seconds
Timing for main: time 2019-11-26_18:14:15 on domain   1:    0.94959 elapsed seconds
Timing for main: time 2019-11-26_18:14:30 on domain   1:    0.95160 elapsed seconds
Timing for main: time 2019-11-26_18:14:45 on domain   1:    0.94982 elapsed seconds
Timing for main: time 2019-11-26_18:15:00 on domain   1:    0.94717 elapsed seconds
Timing for main: time 2019-11-26_18:15:15 on domain   1:    0.94676 elapsed seconds
Timing for main: time 2019-11-26_18:15:30 on domain   1:    1.44380 elapsed seconds
Timing for main: time 2019-11-26_18:15:45 on domain   1:    2.68209 elapsed seconds
Timing for main: time 2019-11-26_18:16:00 on domain   1:    0.95519 elapsed seconds
Timing for main: time 2019-11-26_18:16:15 on domain   1:    0.95384 elapsed seconds
Timing for main: time 2019-11-26_18:16:30 on domain   1:    0.96888 elapsed seconds
Timing for main: time 2019-11-26_18:16:45 on domain   1:    0.95520 elapsed seconds
Timing for main: time 2019-11-26_18:17:00 on domain   1:    0.95174 elapsed seconds
Timing for main: time 2019-11-26_18:17:15 on domain   1:    0.95227 elapsed seconds
Timing for main: time 2019-11-26_18:17:30 on domain   1:    0.96229 elapsed seconds
Timing for main: time 2019-11-26_18:17:45 on domain   1:    0.95401 elapsed seconds
Timing for main: time 2019-11-26_18:18:00 on domain   1:    0.95140 elapsed seconds
Timing for main: time 2019-11-26_18:18:15 on domain   1:    0.95205 elapsed seconds
Timing for main: time 2019-11-26_18:18:30 on domain   1:    0.96322 elapsed seconds
Timing for main: time 2019-11-26_18:18:45 on domain   1:    0.95700 elapsed seconds
Timing for main: time 2019-11-26_18:19:00 on domain   1:    0.95503 elapsed seconds
Timing for main: time 2019-11-26_18:19:15 on domain   1:    0.97888 elapsed seconds
Timing for main: time 2019-11-26_18:19:30 on domain   1:    0.95180 elapsed seconds
Timing for main: time 2019-11-26_18:19:45 on domain   1:    0.96581 elapsed seconds
Timing for main: time 2019-11-26_18:20:00 on domain   1:    0.96525 elapsed seconds
Timing for main: time 2019-11-26_18:20:15 on domain   1:    7.79885 elapsed seconds
Timing for main: time 2019-11-26_18:20:30 on domain   1:    0.96595 elapsed seconds
Timing for main: time 2019-11-26_18:20:45 on domain   1:    0.96613 elapsed seconds
Timing for main: time 2019-11-26_18:21:00 on domain   1:    0.96768 elapsed seconds
Timing for main: time 2019-11-26_18:21:15 on domain   1:    0.96510 elapsed seconds
Timing for main: time 2019-11-26_18:21:30 on domain   1:    0.96871 elapsed seconds
Timing for main: time 2019-11-26_18:21:45 on domain   1:    0.96972 elapsed seconds
Timing for main: time 2019-11-26_18:22:00 on domain   1:    0.97042 elapsed seconds
Timing for main: time 2019-11-26_18:22:15 on domain   1:    0.97045 elapsed seconds
Timing for main: time 2019-11-26_18:22:30 on domain   1:    0.97141 elapsed seconds
Timing for main: time 2019-11-26_18:22:45 on domain   1:    0.97273 elapsed seconds
Timing for main: time 2019-11-26_18:23:00 on domain   1:    0.97679 elapsed seconds
Timing for main: time 2019-11-26_18:23:15 on domain   1:    0.97273 elapsed seconds
Timing for main: time 2019-11-26_18:23:30 on domain   1:    0.97415 elapsed seconds
Timing for main: time 2019-11-26_18:23:45 on domain   1:    0.97743 elapsed seconds
Timing for main: time 2019-11-26_18:24:00 on domain   1:    0.98200 elapsed seconds
Timing for main: time 2019-11-26_18:24:15 on domain   1:    0.97500 elapsed seconds
Timing for main: time 2019-11-26_18:24:30 on domain   1:    0.98164 elapsed seconds
Timing for main: time 2019-11-26_18:24:45 on domain   1:    1.00397 elapsed seconds
Timing for main: time 2019-11-26_18:25:00 on domain   1:    0.98330 elapsed seconds
Timing for main: time 2019-11-26_18:25:15 on domain   1:    0.97759 elapsed seconds
Timing for main: time 2019-11-26_18:25:30 on domain   1:    0.98190 elapsed seconds
Timing for main: time 2019-11-26_18:25:45 on domain   1:    0.97964 elapsed seconds
Timing for main: time 2019-11-26_18:26:00 on domain   1:    0.99004 elapsed seconds
Timing for main: time 2019-11-26_18:26:15 on domain   1:    0.97802 elapsed seconds
Timing for main: time 2019-11-26_18:26:30 on domain   1:    0.98008 elapsed seconds
Timing for main: time 2019-11-26_18:26:45 on domain   1:    0.98126 elapsed seconds
Timing for main: time 2019-11-26_18:27:00 on domain   1:    0.98903 elapsed seconds
Timing for main: time 2019-11-26_18:27:15 on domain   1:    0.97995 elapsed seconds
Timing for main: time 2019-11-26_18:27:30 on domain   1:    0.98393 elapsed seconds
Timing for main: time 2019-11-26_18:27:45 on domain   1:    0.98420 elapsed seconds
Timing for main: time 2019-11-26_18:28:00 on domain   1:    0.99245 elapsed seconds
Timing for main: time 2019-11-26_18:28:15 on domain   1:    0.98557 elapsed seconds
Timing for main: time 2019-11-26_18:28:30 on domain   1:    0.98646 elapsed seconds
Timing for main: time 2019-11-26_18:28:45 on domain   1:    0.98993 elapsed seconds
Timing for main: time 2019-11-26_18:29:00 on domain   1:    0.99200 elapsed seconds
Timing for main: time 2019-11-26_18:29:15 on domain   1:    0.98819 elapsed seconds
Timing for main: time 2019-11-26_18:29:30 on domain   1:    0.98915 elapsed seconds
Timing for main: time 2019-11-26_18:29:45 on domain   1:    0.98929 elapsed seconds
Timing for main: time 2019-11-26_18:30:00 on domain   1:    0.99818 elapsed seconds
Timing for main: time 2019-11-26_18:30:15 on domain   1:    8.11849 elapsed seconds
Timing for main: time 2019-11-26_18:30:30 on domain   1:    0.99480 elapsed seconds
Timing for main: time 2019-11-26_18:30:45 on domain   1:    0.99245 elapsed seconds
Timing for main: time 2019-11-26_18:31:00 on domain   1:    0.99412 elapsed seconds
Timing for main: time 2019-11-26_18:31:15 on domain   1:    0.99614 elapsed seconds
Timing for main: time 2019-11-26_18:31:30 on domain   1:    0.99557 elapsed seconds
Timing for main: time 2019-11-26_18:31:45 on domain   1:    0.99621 elapsed seconds
Timing for main: time 2019-11-26_18:32:00 on domain   1:    0.99769 elapsed seconds
Timing for main: time 2019-11-26_18:32:15 on domain   1:    0.99814 elapsed seconds
Timing for main: time 2019-11-26_18:32:30 on domain   1:    0.99885 elapsed seconds
Timing for main: time 2019-11-26_18:32:45 on domain   1:    0.99800 elapsed seconds
Timing for main: time 2019-11-26_18:33:00 on domain   1:    0.99782 elapsed seconds
Timing for main: time 2019-11-26_18:33:15 on domain   1:    0.99954 elapsed seconds
Timing for main: time 2019-11-26_18:33:30 on domain   1:    1.00094 elapsed seconds
Timing for main: time 2019-11-26_18:33:45 on domain   1:    1.00145 elapsed seconds
Timing for main: time 2019-11-26_18:34:00 on domain   1:    1.00223 elapsed seconds
Timing for main: time 2019-11-26_18:34:15 on domain   1:    1.00188 elapsed seconds
Timing for main: time 2019-11-26_18:34:30 on domain   1:    1.00302 elapsed seconds
Timing for main: time 2019-11-26_18:34:45 on domain   1:    1.00452 elapsed seconds
Timing for main: time 2019-11-26_18:35:00 on domain   1:    1.00264 elapsed seconds
Timing for main: time 2019-11-26_18:35:15 on domain   1:    1.00295 elapsed seconds
Timing for main: time 2019-11-26_18:35:30 on domain   1:    1.00575 elapsed seconds
Timing for main: time 2019-11-26_18:35:45 on domain   1:    1.00563 elapsed seconds
Timing for main: time 2019-11-26_18:36:00 on domain   1:    1.00446 elapsed seconds
Timing for main: time 2019-11-26_18:36:15 on domain   1:    1.00440 elapsed seconds
Timing for main: time 2019-11-26_18:36:30 on domain   1:    1.00307 elapsed seconds
Timing for main: time 2019-11-26_18:36:45 on domain   1:    1.00312 elapsed seconds
Timing for main: time 2019-11-26_18:37:00 on domain   1:    1.00806 elapsed seconds
Timing for main: time 2019-11-26_18:37:15 on domain   1:    1.00530 elapsed seconds
Timing for main: time 2019-11-26_18:37:30 on domain   1:    1.00753 elapsed seconds
Timing for main: time 2019-11-26_18:37:45 on domain   1:    1.00551 elapsed seconds
Timing for main: time 2019-11-26_18:38:00 on domain   1:    1.00767 elapsed seconds
Timing for main: time 2019-11-26_18:38:15 on domain   1:    1.00915 elapsed seconds
Timing for main: time 2019-11-26_18:38:30 on domain   1:    1.00789 elapsed seconds
Timing for main: time 2019-11-26_18:38:45 on domain   1:    1.01126 elapsed seconds
Timing for main: time 2019-11-26_18:39:00 on domain   1:    1.00878 elapsed seconds
Timing for main: time 2019-11-26_18:39:15 on domain   1:    1.01117 elapsed seconds
Timing for main: time 2019-11-26_18:39:30 on domain   1:    1.01052 elapsed seconds
Timing for main: time 2019-11-26_18:39:45 on domain   1:    1.01230 elapsed seconds
Timing for main: time 2019-11-26_18:40:00 on domain   1:    1.01311 elapsed seconds
Timing for main: time 2019-11-26_18:40:15 on domain   1:    8.29269 elapsed seconds
Timing for main: time 2019-11-26_18:40:30 on domain   1:    1.01568 elapsed seconds
Timing for main: time 2019-11-26_18:40:45 on domain   1:    1.01203 elapsed seconds
Timing for main: time 2019-11-26_18:41:00 on domain   1:    1.01163 elapsed seconds
Timing for main: time 2019-11-26_18:41:15 on domain   1:    1.66675 elapsed seconds
Timing for main: time 2019-11-26_18:41:30 on domain   1:    2.58107 elapsed seconds
Timing for main: time 2019-11-26_18:41:45 on domain   1:    1.02726 elapsed seconds
Timing for main: time 2019-11-26_18:42:00 on domain   1:    1.01367 elapsed seconds
Timing for main: time 2019-11-26_18:42:15 on domain   1:    1.03040 elapsed seconds
Timing for main: time 2019-11-26_18:42:30 on domain   1:    1.01875 elapsed seconds
Timing for main: time 2019-11-26_18:42:45 on domain   1:    1.01800 elapsed seconds
Timing for main: time 2019-11-26_18:43:00 on domain   1:    1.01686 elapsed seconds
Timing for main: time 2019-11-26_18:43:15 on domain   1:    1.01836 elapsed seconds
Timing for main: time 2019-11-26_18:43:30 on domain   1:    1.01657 elapsed seconds
Timing for main: time 2019-11-26_18:43:45 on domain   1:    1.02001 elapsed seconds
Timing for main: time 2019-11-26_18:44:00 on domain   1:    1.01850 elapsed seconds
Timing for main: time 2019-11-26_18:44:15 on domain   1:    1.04439 elapsed seconds
Timing for main: time 2019-11-26_18:44:30 on domain   1:    1.00276 elapsed seconds
Timing for main: time 2019-11-26_18:44:45 on domain   1:    1.02013 elapsed seconds
Timing for main: time 2019-11-26_18:45:00 on domain   1:    1.02109 elapsed seconds
Timing for main: time 2019-11-26_18:45:15 on domain   1:    1.02008 elapsed seconds
Timing for main: time 2019-11-26_18:45:30 on domain   1:    1.02161 elapsed seconds
Timing for main: time 2019-11-26_18:45:45 on domain   1:    1.01734 elapsed seconds
Timing for main: time 2019-11-26_18:46:00 on domain   1:    1.02195 elapsed seconds
Timing for main: time 2019-11-26_18:46:15 on domain   1:    1.02248 elapsed seconds
Timing for main: time 2019-11-26_18:46:30 on domain   1:    1.02196 elapsed seconds
Timing for main: time 2019-11-26_18:46:45 on domain   1:    1.02101 elapsed seconds
Timing for main: time 2019-11-26_18:47:00 on domain   1:    1.02224 elapsed seconds
Timing for main: time 2019-11-26_18:47:15 on domain   1:    1.02513 elapsed seconds
Timing for main: time 2019-11-26_18:47:30 on domain   1:    1.02543 elapsed seconds
Timing for main: time 2019-11-26_18:47:45 on domain   1:    1.02422 elapsed seconds
Timing for main: time 2019-11-26_18:48:00 on domain   1:    1.02684 elapsed seconds
Timing for main: time 2019-11-26_18:48:15 on domain   1:    1.02508 elapsed seconds
Timing for main: time 2019-11-26_18:48:30 on domain   1:    1.02322 elapsed seconds
Timing for main: time 2019-11-26_18:48:45 on domain   1:    1.02318 elapsed seconds
Timing for main: time 2019-11-26_18:49:00 on domain   1:    1.02377 elapsed seconds
Timing for main: time 2019-11-26_18:49:15 on domain   1:    1.02621 elapsed seconds
Timing for main: time 2019-11-26_18:49:30 on domain   1:    1.02545 elapsed seconds
Timing for main: time 2019-11-26_18:49:45 on domain   1:    1.02710 elapsed seconds
Timing for main: time 2019-11-26_18:50:00 on domain   1:    1.02696 elapsed seconds
Timing for main: time 2019-11-26_18:50:15 on domain   1:    8.38277 elapsed seconds
Timing for main: time 2019-11-26_18:50:30 on domain   1:    1.02723 elapsed seconds
Timing for main: time 2019-11-26_18:50:45 on domain   1:    1.02618 elapsed seconds
Timing for main: time 2019-11-26_18:51:00 on domain   1:    1.02490 elapsed seconds
Timing for main: time 2019-11-26_18:51:15 on domain   1:    1.02712 elapsed seconds
Timing for main: time 2019-11-26_18:51:30 on domain   1:    1.02645 elapsed seconds
Timing for main: time 2019-11-26_18:51:45 on domain   1:    1.02490 elapsed seconds
Timing for main: time 2019-11-26_18:52:00 on domain   1:    1.02810 elapsed seconds
Timing for main: time 2019-11-26_18:52:15 on domain   1:    1.02729 elapsed seconds
Timing for main: time 2019-11-26_18:52:30 on domain   1:    1.02907 elapsed seconds
Timing for main: time 2019-11-26_18:52:45 on domain   1:    1.02844 elapsed seconds
Timing for main: time 2019-11-26_18:53:00 on domain   1:    1.03071 elapsed seconds
Timing for main: time 2019-11-26_18:53:15 on domain   1:    1.02933 elapsed seconds
Timing for main: time 2019-11-26_18:53:30 on domain   1:    1.03105 elapsed seconds
Timing for main: time 2019-11-26_18:53:45 on domain   1:    1.02852 elapsed seconds
Timing for main: time 2019-11-26_18:54:00 on domain   1:    1.03140 elapsed seconds
Timing for main: time 2019-11-26_18:54:15 on domain   1:    1.03008 elapsed seconds
Timing for main: time 2019-11-26_18:54:30 on domain   1:    1.03103 elapsed seconds
Timing for main: time 2019-11-26_18:54:45 on domain   1:    1.03187 elapsed seconds
Timing for main: time 2019-11-26_18:55:00 on domain   1:    1.03185 elapsed seconds
Timing for main: time 2019-11-26_18:55:15 on domain   1:    1.03232 elapsed seconds
Timing for main: time 2019-11-26_18:55:30 on domain   1:    1.03195 elapsed seconds
Timing for main: time 2019-11-26_18:55:45 on domain   1:    1.03312 elapsed seconds
Timing for main: time 2019-11-26_18:56:00 on domain   1:    1.03144 elapsed seconds
Timing for main: time 2019-11-26_18:56:15 on domain   1:    1.03454 elapsed seconds
Timing for main: time 2019-11-26_18:56:30 on domain   1:    1.03402 elapsed seconds
Timing for main: time 2019-11-26_18:56:45 on domain   1:    1.03395 elapsed seconds
Timing for main: time 2019-11-26_18:57:00 on domain   1:    1.03500 elapsed seconds
Timing for main: time 2019-11-26_18:57:15 on domain   1:    1.03717 elapsed seconds
Timing for main: time 2019-11-26_18:57:30 on domain   1:    1.03749 elapsed seconds
Timing for main: time 2019-11-26_18:57:45 on domain   1:    1.03765 elapsed seconds
Timing for main: time 2019-11-26_18:58:00 on domain   1:    1.03869 elapsed seconds
Timing for main: time 2019-11-26_18:58:15 on domain   1:    1.03722 elapsed seconds
Timing for main: time 2019-11-26_18:58:30 on domain   1:    1.03897 elapsed seconds
Timing for main: time 2019-11-26_18:58:45 on domain   1:    1.03916 elapsed seconds
Timing for main: time 2019-11-26_18:59:00 on domain   1:    1.04008 elapsed seconds
Timing for main: time 2019-11-26_18:59:15 on domain   1:    1.04023 elapsed seconds
Timing for main: time 2019-11-26_18:59:30 on domain   1:    1.04017 elapsed seconds
Timing for main: time 2019-11-26_18:59:45 on domain   1:    1.04139 elapsed seconds
Timing for main: time 2019-11-26_19:00:00 on domain   1:    1.04132 elapsed seconds
 mediation_integrate.G        1249 DATASET=HISTORY
 mediation_integrate.G        1250  grid%id            1  grid%oid            2
Timing for Writing wrfout_d01_2019-11-26_19:00:00 for domain        1:    5.67567 elapsed seconds
Timing for main: time 2019-11-26_19:00:15 on domain   1:   14.01559 elapsed seconds
Timing for main: time 2019-11-26_19:00:30 on domain   1:    1.04875 elapsed seconds
Timing for main: time 2019-11-26_19:00:45 on domain   1:    1.04791 elapsed seconds
Timing for main: time 2019-11-26_19:01:00 on domain   1:    1.04879 elapsed seconds
Timing for main: time 2019-11-26_19:01:15 on domain   1:    1.05118 elapsed seconds
Timing for main: time 2019-11-26_19:01:30 on domain   1:    1.04830 elapsed seconds
Timing for main: time 2019-11-26_19:01:45 on domain   1:    1.05328 elapsed seconds
Timing for main: time 2019-11-26_19:02:00 on domain   1:    1.05004 elapsed seconds
Timing for main: time 2019-11-26_19:02:15 on domain   1:    1.05150 elapsed seconds
Timing for main: time 2019-11-26_19:02:30 on domain   1:    1.05459 elapsed seconds
Timing for main: time 2019-11-26_19:02:45 on domain   1:    1.05189 elapsed seconds
Timing for main: time 2019-11-26_19:03:00 on domain   1:    1.05309 elapsed seconds
Timing for main: time 2019-11-26_19:03:15 on domain   1:    1.05315 elapsed seconds
Timing for main: time 2019-11-26_19:03:30 on domain   1:    1.05592 elapsed seconds
Timing for main: time 2019-11-26_19:03:45 on domain   1:    1.05430 elapsed seconds
Timing for main: time 2019-11-26_19:04:00 on domain   1:    1.05172 elapsed seconds
Timing for main: time 2019-11-26_19:04:15 on domain   1:    1.05442 elapsed seconds
Timing for main: time 2019-11-26_19:04:30 on domain   1:    1.06103 elapsed seconds
Timing for main: time 2019-11-26_19:04:45 on domain   1:    1.05565 elapsed seconds
Timing for main: time 2019-11-26_19:05:00 on domain   1:    1.05547 elapsed seconds
Timing for main: time 2019-11-26_19:05:15 on domain   1:    1.06147 elapsed seconds
Timing for main: time 2019-11-26_19:05:30 on domain   1:    1.05853 elapsed seconds
Timing for main: time 2019-11-26_19:05:45 on domain   1:    1.05827 elapsed seconds
Timing for main: time 2019-11-26_19:06:00 on domain   1:    2.25050 elapsed seconds
Timing for main: time 2019-11-26_19:06:15 on domain   1:    1.92028 elapsed seconds
Timing for main: time 2019-11-26_19:06:30 on domain   1:    1.06205 elapsed seconds
Timing for main: time 2019-11-26_19:06:45 on domain   1:    1.06045 elapsed seconds
Timing for main: time 2019-11-26_19:07:00 on domain   1:    1.05812 elapsed seconds
Timing for main: time 2019-11-26_19:07:15 on domain   1:    1.05831 elapsed seconds
Timing for main: time 2019-11-26_19:07:30 on domain   1:    1.05901 elapsed seconds
Timing for main: time 2019-11-26_19:07:45 on domain   1:    1.06115 elapsed seconds
Timing for main: time 2019-11-26_19:08:00 on domain   1:    1.05775 elapsed seconds
Timing for main: time 2019-11-26_19:08:15 on domain   1:    1.08686 elapsed seconds
Timing for main: time 2019-11-26_19:08:30 on domain   1:    1.05165 elapsed seconds
Timing for main: time 2019-11-26_19:08:45 on domain   1:    1.05518 elapsed seconds
Timing for main: time 2019-11-26_19:09:00 on domain   1:    1.06050 elapsed seconds
Timing for main: time 2019-11-26_19:09:15 on domain   1:    1.05945 elapsed seconds
Timing for main: time 2019-11-26_19:09:30 on domain   1:    1.05961 elapsed seconds
Timing for main: time 2019-11-26_19:09:45 on domain   1:    1.06788 elapsed seconds
Timing for main: time 2019-11-26_19:10:00 on domain   1:    1.06605 elapsed seconds
Timing for main: time 2019-11-26_19:10:15 on domain   1:    8.39449 elapsed seconds
Timing for main: time 2019-11-26_19:10:30 on domain   1:    1.06712 elapsed seconds
Timing for main: time 2019-11-26_19:10:45 on domain   1:    1.07103 elapsed seconds
Timing for main: time 2019-11-26_19:11:00 on domain   1:    1.06974 elapsed seconds
Timing for main: time 2019-11-26_19:11:15 on domain   1:    1.06810 elapsed seconds
Timing for main: time 2019-11-26_19:11:30 on domain   1:    1.06810 elapsed seconds
Timing for main: time 2019-11-26_19:11:45 on domain   1:    1.06938 elapsed seconds
Timing for main: time 2019-11-26_19:12:00 on domain   1:    1.06879 elapsed seconds
Timing for main: time 2019-11-26_19:12:15 on domain   1:    1.07056 elapsed seconds
Timing for main: time 2019-11-26_19:12:30 on domain   1:    1.07278 elapsed seconds
Timing for main: time 2019-11-26_19:12:45 on domain   1:    1.07281 elapsed seconds
Timing for main: time 2019-11-26_19:13:00 on domain   1:    1.07079 elapsed seconds
Timing for main: time 2019-11-26_19:13:15 on domain   1:    1.06962 elapsed seconds
Timing for main: time 2019-11-26_19:13:30 on domain   1:    1.07345 elapsed seconds
Timing for main: time 2019-11-26_19:13:45 on domain   1:    1.07153 elapsed seconds
Timing for main: time 2019-11-26_19:14:00 on domain   1:    1.07487 elapsed seconds
Timing for main: time 2019-11-26_19:14:15 on domain   1:    1.07256 elapsed seconds
Timing for main: time 2019-11-26_19:14:30 on domain   1:    1.07405 elapsed seconds
Timing for main: time 2019-11-26_19:14:45 on domain   1:    1.07581 elapsed seconds
Timing for main: time 2019-11-26_19:15:00 on domain   1:    1.07521 elapsed seconds
Timing for main: time 2019-11-26_19:15:15 on domain   1:    1.07378 elapsed seconds
Timing for main: time 2019-11-26_19:15:30 on domain   1:    1.07557 elapsed seconds
Timing for main: time 2019-11-26_19:15:45 on domain   1:    1.07877 elapsed seconds
Timing for main: time 2019-11-26_19:16:00 on domain   1:    1.07427 elapsed seconds
Timing for main: time 2019-11-26_19:16:15 on domain   1:    1.07601 elapsed seconds
Timing for main: time 2019-11-26_19:16:30 on domain   1:    1.07656 elapsed seconds
Timing for main: time 2019-11-26_19:16:45 on domain   1:    1.07828 elapsed seconds
Timing for main: time 2019-11-26_19:17:00 on domain   1:    1.07710 elapsed seconds
Timing for main: time 2019-11-26_19:17:15 on domain   1:    1.07637 elapsed seconds
Timing for main: time 2019-11-26_19:17:30 on domain   1:    1.07770 elapsed seconds
Timing for main: time 2019-11-26_19:17:45 on domain   1:    1.07977 elapsed seconds
Timing for main: time 2019-11-26_19:18:00 on domain   1:    1.07699 elapsed seconds
Timing for main: time 2019-11-26_19:18:15 on domain   1:    1.07765 elapsed seconds
Timing for main: time 2019-11-26_19:18:30 on domain   1:    1.07887 elapsed seconds
Timing for main: time 2019-11-26_19:18:45 on domain   1:    1.08000 elapsed seconds
Timing for main: time 2019-11-26_19:19:00 on domain   1:    1.07760 elapsed seconds
Timing for main: time 2019-11-26_19:19:15 on domain   1:    1.07982 elapsed seconds
Timing for main: time 2019-11-26_19:19:30 on domain   1:    1.08017 elapsed seconds
Timing for main: time 2019-11-26_19:19:45 on domain   1:    1.08207 elapsed seconds
Timing for main: time 2019-11-26_19:20:00 on domain   1:    1.07948 elapsed seconds
Timing for main: time 2019-11-26_19:20:15 on domain   1:    8.43191 elapsed seconds
Timing for main: time 2019-11-26_19:20:30 on domain   1:    1.06371 elapsed seconds
Timing for main: time 2019-11-26_19:20:45 on domain   1:    1.07243 elapsed seconds
Timing for main: time 2019-11-26_19:21:00 on domain   1:    1.07818 elapsed seconds
Timing for main: time 2019-11-26_19:21:15 on domain   1:    1.07548 elapsed seconds
Timing for main: time 2019-11-26_19:21:30 on domain   1:    1.07680 elapsed seconds
Timing for main: time 2019-11-26_19:21:45 on domain   1:    1.07515 elapsed seconds
Timing for main: time 2019-11-26_19:22:00 on domain   1:    1.07914 elapsed seconds
Timing for main: time 2019-11-26_19:22:15 on domain   1:    1.07528 elapsed seconds
Timing for main: time 2019-11-26_19:22:30 on domain   1:    1.07785 elapsed seconds
Timing for main: time 2019-11-26_19:22:45 on domain   1:    1.07753 elapsed seconds
Timing for main: time 2019-11-26_19:23:00 on domain   1:    1.07976 elapsed seconds
Timing for main: time 2019-11-26_19:23:15 on domain   1:    1.07552 elapsed seconds
Timing for main: time 2019-11-26_19:23:30 on domain   1:    1.07924 elapsed seconds
Timing for main: time 2019-11-26_19:23:45 on domain   1:    1.07701 elapsed seconds
Timing for main: time 2019-11-26_19:24:00 on domain   1:    1.07915 elapsed seconds
Timing for main: time 2019-11-26_19:24:15 on domain   1:    1.07721 elapsed seconds
Timing for main: time 2019-11-26_19:24:30 on domain   1:    1.08340 elapsed seconds
Timing for main: time 2019-11-26_19:24:45 on domain   1:    1.07736 elapsed seconds
Timing for main: time 2019-11-26_19:25:00 on domain   1:    1.08331 elapsed seconds
Timing for main: time 2019-11-26_19:25:15 on domain   1:    1.07908 elapsed seconds
Timing for main: time 2019-11-26_19:25:30 on domain   1:    1.08239 elapsed seconds
Timing for main: time 2019-11-26_19:25:45 on domain   1:    1.07898 elapsed seconds
Timing for main: time 2019-11-26_19:26:00 on domain   1:    1.08342 elapsed seconds
Timing for main: time 2019-11-26_19:26:15 on domain   1:    1.07859 elapsed seconds
Timing for main: time 2019-11-26_19:26:30 on domain   1:    1.08200 elapsed seconds
Timing for main: time 2019-11-26_19:26:45 on domain   1:    1.07803 elapsed seconds
Timing for main: time 2019-11-26_19:27:00 on domain   1:    1.08144 elapsed seconds
Timing for main: time 2019-11-26_19:27:15 on domain   1:    1.07465 elapsed seconds
Timing for main: time 2019-11-26_19:27:30 on domain   1:    1.08265 elapsed seconds
Timing for main: time 2019-11-26_19:27:45 on domain   1:    1.07676 elapsed seconds
Timing for main: time 2019-11-26_19:28:00 on domain   1:    1.08202 elapsed seconds
Timing for main: time 2019-11-26_19:28:15 on domain   1:    1.07857 elapsed seconds
Timing for main: time 2019-11-26_19:28:30 on domain   1:    1.08282 elapsed seconds
Timing for main: time 2019-11-26_19:28:45 on domain   1:    1.07855 elapsed seconds
Timing for main: time 2019-11-26_19:29:00 on domain   1:    1.08383 elapsed seconds
Timing for main: time 2019-11-26_19:29:15 on domain   1:    1.07203 elapsed seconds
Timing for main: time 2019-11-26_19:29:30 on domain   1:    1.08392 elapsed seconds
Timing for main: time 2019-11-26_19:29:45 on domain   1:    1.07749 elapsed seconds
Timing for main: time 2019-11-26_19:30:00 on domain   1:    1.08518 elapsed seconds
Timing for main: time 2019-11-26_19:30:15 on domain   1:    9.47301 elapsed seconds
Timing for main: time 2019-11-26_19:30:30 on domain   1:    1.08028 elapsed seconds
Timing for main: time 2019-11-26_19:30:45 on domain   1:    1.10217 elapsed seconds
Timing for main: time 2019-11-26_19:31:00 on domain   1:    1.06743 elapsed seconds
Timing for main: time 2019-11-26_19:31:15 on domain   1:    1.07669 elapsed seconds
Timing for main: time 2019-11-26_19:31:30 on domain   1:    1.07634 elapsed seconds
Timing for main: time 2019-11-26_19:31:45 on domain   1:    1.08427 elapsed seconds
Timing for main: time 2019-11-26_19:32:00 on domain   1:    1.08391 elapsed seconds
Timing for main: time 2019-11-26_19:32:15 on domain   1:    1.08022 elapsed seconds
Timing for main: time 2019-11-26_19:32:30 on domain   1:    1.08526 elapsed seconds
Timing for main: time 2019-11-26_19:32:45 on domain   1:    1.07870 elapsed seconds
Timing for main: time 2019-11-26_19:33:00 on domain   1:    1.08680 elapsed seconds
Timing for main: time 2019-11-26_19:33:15 on domain   1:    1.08612 elapsed seconds
Timing for main: time 2019-11-26_19:33:30 on domain   1:    1.08335 elapsed seconds
Timing for main: time 2019-11-26_19:33:45 on domain   1:    1.08022 elapsed seconds
Timing for main: time 2019-11-26_19:34:00 on domain   1:    1.08059 elapsed seconds
Timing for main: time 2019-11-26_19:34:15 on domain   1:    1.08213 elapsed seconds
Timing for main: time 2019-11-26_19:34:30 on domain   1:    1.07883 elapsed seconds
Timing for main: time 2019-11-26_19:34:45 on domain   1:    1.07791 elapsed seconds
Timing for main: time 2019-11-26_19:35:00 on domain   1:    1.07963 elapsed seconds
Timing for main: time 2019-11-26_19:35:15 on domain   1:    1.07522 elapsed seconds
Timing for main: time 2019-11-26_19:35:30 on domain   1:    1.07935 elapsed seconds
Timing for main: time 2019-11-26_19:35:45 on domain   1:    1.07594 elapsed seconds
Timing for main: time 2019-11-26_19:36:00 on domain   1:    1.08046 elapsed seconds
Timing for main: time 2019-11-26_19:36:15 on domain   1:    1.07727 elapsed seconds
Timing for main: time 2019-11-26_19:36:30 on domain   1:    1.08071 elapsed seconds
Timing for main: time 2019-11-26_19:36:45 on domain   1:    1.07437 elapsed seconds
Timing for main: time 2019-11-26_19:37:00 on domain   1:    1.07450 elapsed seconds
Timing for main: time 2019-11-26_19:37:15 on domain   1:    1.07497 elapsed seconds
Timing for main: time 2019-11-26_19:37:30 on domain   1:    1.11643 elapsed seconds
Timing for main: time 2019-11-26_19:37:45 on domain   1:    1.07650 elapsed seconds
Timing for main: time 2019-11-26_19:38:00 on domain   1:    1.07640 elapsed seconds
Timing for main: time 2019-11-26_19:38:15 on domain   1:    1.08137 elapsed seconds
Timing for main: time 2019-11-26_19:38:30 on domain   1:    1.07955 elapsed seconds
Timing for main: time 2019-11-26_19:38:45 on domain   1:    1.07505 elapsed seconds
Timing for main: time 2019-11-26_19:39:00 on domain   1:    1.07552 elapsed seconds
Timing for main: time 2019-11-26_19:39:15 on domain   1:    1.07887 elapsed seconds
Timing for main: time 2019-11-26_19:39:30 on domain   1:    1.07885 elapsed seconds
Timing for main: time 2019-11-26_19:39:45 on domain   1:    1.07315 elapsed seconds
Timing for main: time 2019-11-26_19:40:00 on domain   1:    1.08267 elapsed seconds
Timing for main: time 2019-11-26_19:40:15 on domain   1:    8.45291 elapsed seconds
Timing for main: time 2019-11-26_19:40:30 on domain   1:    1.07783 elapsed seconds
Timing for main: time 2019-11-26_19:40:45 on domain   1:    1.07552 elapsed seconds
Timing for main: time 2019-11-26_19:41:00 on domain   1:    1.07969 elapsed seconds
Timing for main: time 2019-11-26_19:41:15 on domain   1:    1.08073 elapsed seconds
Timing for main: time 2019-11-26_19:41:30 on domain   1:    1.07963 elapsed seconds
Timing for main: time 2019-11-26_19:41:45 on domain   1:    1.07802 elapsed seconds
Timing for main: time 2019-11-26_19:42:00 on domain   1:    1.07606 elapsed seconds
Timing for main: time 2019-11-26_19:42:15 on domain   1:    1.07918 elapsed seconds
Timing for main: time 2019-11-26_19:42:30 on domain   1:    1.07570 elapsed seconds
Timing for main: time 2019-11-26_19:42:45 on domain   1:    1.07774 elapsed seconds
Timing for main: time 2019-11-26_19:43:00 on domain   1:    1.07596 elapsed seconds
Timing for main: time 2019-11-26_19:43:15 on domain   1:    1.07792 elapsed seconds
Timing for main: time 2019-11-26_19:43:30 on domain   1:    1.08577 elapsed seconds
Timing for main: time 2019-11-26_19:43:45 on domain   1:    1.07554 elapsed seconds
Timing for main: time 2019-11-26_19:44:00 on domain   1:    1.08120 elapsed seconds
Timing for main: time 2019-11-26_19:44:15 on domain   1:    1.08068 elapsed seconds
Timing for main: time 2019-11-26_19:44:30 on domain   1:    1.08076 elapsed seconds
Timing for main: time 2019-11-26_19:44:45 on domain   1:    1.07610 elapsed seconds
Timing for main: time 2019-11-26_19:45:00 on domain   1:    1.08097 elapsed seconds
Timing for main: time 2019-11-26_19:45:15 on domain   1:    1.07872 elapsed seconds
Timing for main: time 2019-11-26_19:45:30 on domain   1:    1.08240 elapsed seconds
Timing for main: time 2019-11-26_19:45:45 on domain   1:    1.07873 elapsed seconds
Timing for main: time 2019-11-26_19:46:00 on domain   1:    1.07328 elapsed seconds
Timing for main: time 2019-11-26_19:46:15 on domain   1:    1.07789 elapsed seconds
Timing for main: time 2019-11-26_19:46:30 on domain   1:    1.07490 elapsed seconds
Timing for main: time 2019-11-26_19:46:45 on domain   1:    1.08397 elapsed seconds
Timing for main: time 2019-11-26_19:47:00 on domain   1:    1.08031 elapsed seconds
Timing for main: time 2019-11-26_19:47:15 on domain   1:    1.08237 elapsed seconds
Timing for main: time 2019-11-26_19:47:30 on domain   1:    1.08114 elapsed seconds
Timing for main: time 2019-11-26_19:47:45 on domain   1:    1.07666 elapsed seconds
Timing for main: time 2019-11-26_19:48:00 on domain   1:    1.08032 elapsed seconds
Timing for main: time 2019-11-26_19:48:15 on domain   1:    1.07545 elapsed seconds
Timing for main: time 2019-11-26_19:48:30 on domain   1:    1.08078 elapsed seconds
Timing for main: time 2019-11-26_19:48:45 on domain   1:    1.07949 elapsed seconds
Timing for main: time 2019-11-26_19:49:00 on domain   1:    1.08708 elapsed seconds
Timing for main: time 2019-11-26_19:49:15 on domain   1:    1.08250 elapsed seconds
Timing for main: time 2019-11-26_19:49:30 on domain   1:    1.08109 elapsed seconds
Timing for main: time 2019-11-26_19:49:45 on domain   1:    1.08114 elapsed seconds
Timing for main: time 2019-11-26_19:50:00 on domain   1:    1.08200 elapsed seconds
Timing for main: time 2019-11-26_19:50:15 on domain   1:    8.45627 elapsed seconds
Timing for main: time 2019-11-26_19:50:30 on domain   1:    1.08302 elapsed seconds
Timing for main: time 2019-11-26_19:50:45 on domain   1:    1.07852 elapsed seconds
Timing for main: time 2019-11-26_19:51:00 on domain   1:    1.07340 elapsed seconds
Timing for main: time 2019-11-26_19:51:15 on domain   1:    1.07913 elapsed seconds
Timing for main: time 2019-11-26_19:51:30 on domain   1:    1.07965 elapsed seconds
Timing for main: time 2019-11-26_19:51:45 on domain   1:    1.07971 elapsed seconds
Timing for main: time 2019-11-26_19:52:00 on domain   1:    1.08151 elapsed seconds
Timing for main: time 2019-11-26_19:52:15 on domain   1:    1.09170 elapsed seconds
Timing for main: time 2019-11-26_19:52:30 on domain   1:    1.07974 elapsed seconds
Timing for main: time 2019-11-26_19:52:45 on domain   1:    1.08701 elapsed seconds
Timing for main: time 2019-11-26_19:53:00 on domain   1:    1.06803 elapsed seconds
Timing for main: time 2019-11-26_19:53:15 on domain   1:    1.07700 elapsed seconds
Timing for main: time 2019-11-26_19:53:30 on domain   1:    1.08426 elapsed seconds
Timing for main: time 2019-11-26_19:53:45 on domain   1:    1.08601 elapsed seconds
Timing for main: time 2019-11-26_19:54:00 on domain   1:    1.08608 elapsed seconds
Timing for main: time 2019-11-26_19:54:15 on domain   1:    1.07585 elapsed seconds
Timing for main: time 2019-11-26_19:54:30 on domain   1:    1.08306 elapsed seconds
Timing for main: time 2019-11-26_19:54:45 on domain   1:    1.26880 elapsed seconds
Timing for main: time 2019-11-26_19:55:00 on domain   1:    2.77256 elapsed seconds
Timing for main: time 2019-11-26_19:55:15 on domain   1:    1.23883 elapsed seconds
Timing for main: time 2019-11-26_19:55:30 on domain   1:    1.07223 elapsed seconds
Timing for main: time 2019-11-26_19:55:45 on domain   1:    1.10264 elapsed seconds
Timing for main: time 2019-11-26_19:56:00 on domain   1:    1.07587 elapsed seconds
Timing for main: time 2019-11-26_19:56:15 on domain   1:    1.08013 elapsed seconds
Timing for main: time 2019-11-26_19:56:30 on domain   1:    1.08945 elapsed seconds
Timing for main: time 2019-11-26_19:56:45 on domain   1:    1.07359 elapsed seconds
Timing for main: time 2019-11-26_19:57:00 on domain   1:    1.08094 elapsed seconds
Timing for main: time 2019-11-26_19:57:15 on domain   1:    1.08394 elapsed seconds
Timing for main: time 2019-11-26_19:57:30 on domain   1:    1.07479 elapsed seconds
Timing for main: time 2019-11-26_19:57:45 on domain   1:    1.08599 elapsed seconds
Timing for main: time 2019-11-26_19:58:00 on domain   1:    1.07590 elapsed seconds
Timing for main: time 2019-11-26_19:58:15 on domain   1:    1.08458 elapsed seconds
Timing for main: time 2019-11-26_19:58:30 on domain   1:    1.07796 elapsed seconds
Timing for main: time 2019-11-26_19:58:45 on domain   1:    1.08501 elapsed seconds
Timing for main: time 2019-11-26_19:59:00 on domain   1:    1.08513 elapsed seconds
Timing for main: time 2019-11-26_19:59:15 on domain   1:    1.08016 elapsed seconds
Timing for main: time 2019-11-26_19:59:30 on domain   1:    1.08436 elapsed seconds
Timing for main: time 2019-11-26_19:59:45 on domain   1:    1.08169 elapsed seconds
Timing for main: time 2019-11-26_20:00:00 on domain   1:    1.08164 elapsed seconds
 mediation_integrate.G        1249 DATASET=HISTORY
 mediation_integrate.G        1250  grid%id            1  grid%oid            2
Timing for Writing wrfout_d01_2019-11-26_20:00:00 for domain        1:    5.54109 elapsed seconds
Timing for main: time 2019-11-26_20:00:15 on domain   1:   13.94102 elapsed seconds
Timing for main: time 2019-11-26_20:00:30 on domain   1:    1.07917 elapsed seconds
Timing for main: time 2019-11-26_20:00:45 on domain   1:    1.09286 elapsed seconds
Timing for main: time 2019-11-26_20:01:00 on domain   1:    1.09169 elapsed seconds
Timing for main: time 2019-11-26_20:01:15 on domain   1:    1.09626 elapsed seconds
Timing for main: time 2019-11-26_20:01:30 on domain   1:    1.09092 elapsed seconds
Timing for main: time 2019-11-26_20:01:45 on domain   1:    1.09572 elapsed seconds
Timing for main: time 2019-11-26_20:02:00 on domain   1:    1.08690 elapsed seconds
Timing for main: time 2019-11-26_20:02:15 on domain   1:    1.09536 elapsed seconds
Timing for main: time 2019-11-26_20:02:30 on domain   1:    1.09077 elapsed seconds
Timing for main: time 2019-11-26_20:02:45 on domain   1:    1.09142 elapsed seconds
Timing for main: time 2019-11-26_20:03:00 on domain   1:    1.09198 elapsed seconds
Timing for main: time 2019-11-26_20:03:15 on domain   1:    1.09447 elapsed seconds
Timing for main: time 2019-11-26_20:03:30 on domain   1:    1.09348 elapsed seconds
Timing for main: time 2019-11-26_20:03:45 on domain   1:    1.09140 elapsed seconds
Timing for main: time 2019-11-26_20:04:00 on domain   1:    1.09555 elapsed seconds
Timing for main: time 2019-11-26_20:04:15 on domain   1:    1.09107 elapsed seconds
Timing for main: time 2019-11-26_20:04:30 on domain   1:    1.09561 elapsed seconds
Timing for main: time 2019-11-26_20:04:45 on domain   1:    1.09342 elapsed seconds
Timing for main: time 2019-11-26_20:05:00 on domain   1:    1.09571 elapsed seconds
Timing for main: time 2019-11-26_20:05:15 on domain   1:    1.09557 elapsed seconds
Timing for main: time 2019-11-26_20:05:30 on domain   1:    1.09071 elapsed seconds
Timing for main: time 2019-11-26_20:05:45 on domain   1:    1.09912 elapsed seconds
Timing for main: time 2019-11-26_20:06:00 on domain   1:    1.08932 elapsed seconds
Timing for main: time 2019-11-26_20:06:15 on domain   1:    1.09851 elapsed seconds
Timing for main: time 2019-11-26_20:06:30 on domain   1:    1.09088 elapsed seconds
Timing for main: time 2019-11-26_20:06:45 on domain   1:    1.09754 elapsed seconds
Timing for main: time 2019-11-26_20:07:00 on domain   1:    1.09145 elapsed seconds
Timing for main: time 2019-11-26_20:07:15 on domain   1:    1.09612 elapsed seconds
Timing for main: time 2019-11-26_20:07:30 on domain   1:    1.09430 elapsed seconds
Timing for main: time 2019-11-26_20:07:45 on domain   1:    1.09325 elapsed seconds
Timing for main: time 2019-11-26_20:08:00 on domain   1:    1.10027 elapsed seconds
Timing for main: time 2019-11-26_20:08:15 on domain   1:    1.09277 elapsed seconds
Timing for main: time 2019-11-26_20:08:30 on domain   1:    1.09526 elapsed seconds
Timing for main: time 2019-11-26_20:08:45 on domain   1:    1.09061 elapsed seconds
Timing for main: time 2019-11-26_20:09:00 on domain   1:    1.09442 elapsed seconds
Timing for main: time 2019-11-26_20:09:15 on domain   1:    1.09236 elapsed seconds
Timing for main: time 2019-11-26_20:09:30 on domain   1:    1.09581 elapsed seconds
Timing for main: time 2019-11-26_20:09:45 on domain   1:    1.09246 elapsed seconds
Timing for main: time 2019-11-26_20:10:00 on domain   1:    1.08970 elapsed seconds
Timing for main: time 2019-11-26_20:10:15 on domain   1:    8.46700 elapsed seconds
Timing for main: time 2019-11-26_20:10:30 on domain   1:    1.09194 elapsed seconds
Timing for main: time 2019-11-26_20:10:45 on domain   1:    1.09324 elapsed seconds
Timing for main: time 2019-11-26_20:11:00 on domain   1:    1.09379 elapsed seconds
Timing for main: time 2019-11-26_20:11:15 on domain   1:    1.09757 elapsed seconds
Timing for main: time 2019-11-26_20:11:30 on domain   1:    1.09540 elapsed seconds
Timing for main: time 2019-11-26_20:11:45 on domain   1:    1.09295 elapsed seconds
Timing for main: time 2019-11-26_20:12:00 on domain   1:    1.09541 elapsed seconds
Timing for main: time 2019-11-26_20:12:15 on domain   1:    1.09476 elapsed seconds
Timing for main: time 2019-11-26_20:12:30 on domain   1:    1.09392 elapsed seconds
Timing for main: time 2019-11-26_20:12:45 on domain   1:    1.09303 elapsed seconds
Timing for main: time 2019-11-26_20:13:00 on domain   1:    1.09377 elapsed seconds
Timing for main: time 2019-11-26_20:13:15 on domain   1:    1.09415 elapsed seconds
Timing for main: time 2019-11-26_20:13:30 on domain   1:    1.09534 elapsed seconds
Timing for main: time 2019-11-26_20:13:45 on domain   1:    1.09261 elapsed seconds
Timing for main: time 2019-11-26_20:14:00 on domain   1:    1.09464 elapsed seconds
Timing for main: time 2019-11-26_20:14:15 on domain   1:    1.09345 elapsed seconds
Timing for main: time 2019-11-26_20:14:30 on domain   1:    1.09429 elapsed seconds
Timing for main: time 2019-11-26_20:14:45 on domain   1:    1.09101 elapsed seconds
Timing for main: time 2019-11-26_20:15:00 on domain   1:    1.09325 elapsed seconds
Timing for main: time 2019-11-26_20:15:15 on domain   1:    1.09413 elapsed seconds
Timing for main: time 2019-11-26_20:15:30 on domain   1:    1.09599 elapsed seconds
Timing for main: time 2019-11-26_20:15:45 on domain   1:    1.09154 elapsed seconds
Timing for main: time 2019-11-26_20:16:00 on domain   1:    1.09317 elapsed seconds
Timing for main: time 2019-11-26_20:16:15 on domain   1:    1.09544 elapsed seconds
Timing for main: time 2019-11-26_20:16:30 on domain   1:    1.09594 elapsed seconds
Timing for main: time 2019-11-26_20:16:45 on domain   1:    1.09003 elapsed seconds
Timing for main: time 2019-11-26_20:17:00 on domain   1:    1.09320 elapsed seconds
Timing for main: time 2019-11-26_20:17:15 on domain   1:    1.09303 elapsed seconds
Timing for main: time 2019-11-26_20:17:30 on domain   1:    1.09610 elapsed seconds
Timing for main: time 2019-11-26_20:17:45 on domain   1:    1.09327 elapsed seconds
Timing for main: time 2019-11-26_20:18:00 on domain   1:    1.09461 elapsed seconds
Timing for main: time 2019-11-26_20:18:15 on domain   1:    1.09381 elapsed seconds
Timing for main: time 2019-11-26_20:18:30 on domain   1:    2.85092 elapsed seconds
Timing for main: time 2019-11-26_20:18:45 on domain   1:    1.37495 elapsed seconds
Timing for main: time 2019-11-26_20:19:00 on domain   1:    1.08985 elapsed seconds
Timing for main: time 2019-11-26_20:19:15 on domain   1:    1.09265 elapsed seconds
Timing for main: time 2019-11-26_20:19:30 on domain   1:    1.09425 elapsed seconds
Timing for main: time 2019-11-26_20:19:45 on domain   1:    1.09160 elapsed seconds
Timing for main: time 2019-11-26_20:20:00 on domain   1:    1.09129 elapsed seconds
Timing for main: time 2019-11-26_20:20:15 on domain   1:    8.47289 elapsed seconds
Timing for main: time 2019-11-26_20:20:30 on domain   1:    1.09213 elapsed seconds
Timing for main: time 2019-11-26_20:20:45 on domain   1:    1.09244 elapsed seconds
Timing for main: time 2019-11-26_20:21:00 on domain   1:    1.09072 elapsed seconds
Timing for main: time 2019-11-26_20:21:15 on domain   1:    1.10224 elapsed seconds
Timing for main: time 2019-11-26_20:21:30 on domain   1:    1.09167 elapsed seconds
Timing for main: time 2019-11-26_20:21:45 on domain   1:    1.08742 elapsed seconds
Timing for main: time 2019-11-26_20:22:00 on domain   1:    1.14282 elapsed seconds
Timing for main: time 2019-11-26_20:22:15 on domain   1:    1.09307 elapsed seconds
Timing for main: time 2019-11-26_20:22:30 on domain   1:    1.08800 elapsed seconds
Timing for main: time 2019-11-26_20:22:45 on domain   1:    1.09302 elapsed seconds
Timing for main: time 2019-11-26_20:23:00 on domain   1:    1.09296 elapsed seconds
Timing for main: time 2019-11-26_20:23:15 on domain   1:    1.09878 elapsed seconds
Timing for main: time 2019-11-26_20:23:30 on domain   1:    1.08970 elapsed seconds
Timing for main: time 2019-11-26_20:23:45 on domain   1:    1.08544 elapsed seconds
Timing for main: time 2019-11-26_20:24:00 on domain   1:    1.09044 elapsed seconds
Timing for main: time 2019-11-26_20:24:15 on domain   1:    1.08982 elapsed seconds
Timing for main: time 2019-11-26_20:24:30 on domain   1:    1.08804 elapsed seconds
Timing for main: time 2019-11-26_20:24:45 on domain   1:    1.09367 elapsed seconds
Timing for main: time 2019-11-26_20:25:00 on domain   1:    1.09218 elapsed seconds
Timing for main: time 2019-11-26_20:25:15 on domain   1:    1.09469 elapsed seconds
Timing for main: time 2019-11-26_20:25:30 on domain   1:    1.08886 elapsed seconds
Timing for main: time 2019-11-26_20:25:45 on domain   1:    1.08501 elapsed seconds
Timing for main: time 2019-11-26_20:26:00 on domain   1:    1.09007 elapsed seconds
Timing for main: time 2019-11-26_20:26:15 on domain   1:    1.08855 elapsed seconds
Timing for main: time 2019-11-26_20:26:30 on domain   1:    1.08749 elapsed seconds
Timing for main: time 2019-11-26_20:26:45 on domain   1:    1.09032 elapsed seconds
Timing for main: time 2019-11-26_20:27:00 on domain   1:    1.08913 elapsed seconds
Timing for main: time 2019-11-26_20:27:15 on domain   1:    1.09476 elapsed seconds
Timing for main: time 2019-11-26_20:27:30 on domain   1:    1.08991 elapsed seconds
Timing for main: time 2019-11-26_20:27:45 on domain   1:    1.08362 elapsed seconds
Timing for main: time 2019-11-26_20:28:00 on domain   1:    1.08709 elapsed seconds
Timing for main: time 2019-11-26_20:28:15 on domain   1:    1.08894 elapsed seconds
Timing for main: time 2019-11-26_20:28:30 on domain   1:    1.08830 elapsed seconds
Timing for main: time 2019-11-26_20:28:45 on domain   1:    1.09146 elapsed seconds
Timing for main: time 2019-11-26_20:29:00 on domain   1:    1.08872 elapsed seconds
Timing for main: time 2019-11-26_20:29:15 on domain   1:    1.09405 elapsed seconds
Timing for main: time 2019-11-26_20:29:30 on domain   1:    1.09015 elapsed seconds
Timing for main: time 2019-11-26_20:29:45 on domain   1:    1.08355 elapsed seconds
Timing for main: time 2019-11-26_20:30:00 on domain   1:    1.09050 elapsed seconds
Timing for main: time 2019-11-26_20:30:15 on domain   1:    8.50180 elapsed seconds
Timing for main: time 2019-11-26_20:30:30 on domain   1:    1.07649 elapsed seconds
Timing for main: time 2019-11-26_20:30:45 on domain   1:    1.08563 elapsed seconds
Timing for main: time 2019-11-26_20:31:00 on domain   1:    1.09333 elapsed seconds
Timing for main: time 2019-11-26_20:31:15 on domain   1:    1.08926 elapsed seconds
Timing for main: time 2019-11-26_20:31:30 on domain   1:    1.08688 elapsed seconds
Timing for main: time 2019-11-26_20:31:45 on domain   1:    1.09356 elapsed seconds
Timing for main: time 2019-11-26_20:32:00 on domain   1:    1.08966 elapsed seconds
Timing for main: time 2019-11-26_20:32:15 on domain   1:    1.08639 elapsed seconds
Timing for main: time 2019-11-26_20:32:30 on domain   1:    1.09453 elapsed seconds
Timing for main: time 2019-11-26_20:32:45 on domain   1:    1.09143 elapsed seconds
Timing for main: time 2019-11-26_20:33:00 on domain   1:    1.08229 elapsed seconds
Timing for main: time 2019-11-26_20:33:15 on domain   1:    1.09362 elapsed seconds
Timing for main: time 2019-11-26_20:33:30 on domain   1:    1.08944 elapsed seconds
Timing for main: time 2019-11-26_20:33:45 on domain   1:    1.08607 elapsed seconds
Timing for main: time 2019-11-26_20:34:00 on domain   1:    1.09603 elapsed seconds
Timing for main: time 2019-11-26_20:34:15 on domain   1:    1.08915 elapsed seconds
Timing for main: time 2019-11-26_20:34:30 on domain   1:    1.08348 elapsed seconds
Timing for main: time 2019-11-26_20:34:45 on domain   1:    1.09171 elapsed seconds
Timing for main: time 2019-11-26_20:35:00 on domain   1:    1.09047 elapsed seconds
Timing for main: time 2019-11-26_20:35:15 on domain   1:    1.08358 elapsed seconds
Timing for main: time 2019-11-26_20:35:30 on domain   1:    1.09376 elapsed seconds
Timing for main: time 2019-11-26_20:35:45 on domain   1:    1.08995 elapsed seconds
Timing for main: time 2019-11-26_20:36:00 on domain   1:    1.08440 elapsed seconds
Timing for main: time 2019-11-26_20:36:15 on domain   1:    1.09388 elapsed seconds
Timing for main: time 2019-11-26_20:36:30 on domain   1:    1.08785 elapsed seconds
Timing for main: time 2019-11-26_20:36:45 on domain   1:    1.08517 elapsed seconds
Timing for main: time 2019-11-26_20:37:00 on domain   1:    1.09366 elapsed seconds
Timing for main: time 2019-11-26_20:37:15 on domain   1:    1.09355 elapsed seconds
Timing for main: time 2019-11-26_20:37:30 on domain   1:    1.08598 elapsed seconds
Timing for main: time 2019-11-26_20:37:45 on domain   1:    1.09332 elapsed seconds
Timing for main: time 2019-11-26_20:38:00 on domain   1:    1.09087 elapsed seconds
Timing for main: time 2019-11-26_20:38:15 on domain   1:    1.08421 elapsed seconds
Timing for main: time 2019-11-26_20:38:30 on domain   1:    1.08904 elapsed seconds
Timing for main: time 2019-11-26_20:38:45 on domain   1:    1.09064 elapsed seconds
Timing for main: time 2019-11-26_20:39:00 on domain   1:    1.08604 elapsed seconds
Timing for main: time 2019-11-26_20:39:15 on domain   1:    1.09292 elapsed seconds
Timing for main: time 2019-11-26_20:39:30 on domain   1:    1.08975 elapsed seconds
Timing for main: time 2019-11-26_20:39:45 on domain   1:    1.08613 elapsed seconds
Timing for main: time 2019-11-26_20:40:00 on domain   1:    1.09189 elapsed seconds
Timing for main: time 2019-11-26_20:40:15 on domain   1:    8.49974 elapsed seconds
Timing for main: time 2019-11-26_20:40:30 on domain   1:    1.08594 elapsed seconds
Timing for main: time 2019-11-26_20:40:45 on domain   1:    1.09077 elapsed seconds
Timing for main: time 2019-11-26_20:41:00 on domain   1:    1.08542 elapsed seconds
Timing for main: time 2019-11-26_20:41:15 on domain   1:    1.09102 elapsed seconds
Timing for main: time 2019-11-26_20:41:30 on domain   1:    1.84427 elapsed seconds
Timing for main: time 2019-11-26_20:41:45 on domain   1:    2.28108 elapsed seconds
Timing for main: time 2019-11-26_20:42:00 on domain   1:    1.08869 elapsed seconds
Timing for main: time 2019-11-26_20:42:15 on domain   1:    1.08431 elapsed seconds
Timing for main: time 2019-11-26_20:42:30 on domain   1:    1.07877 elapsed seconds
Timing for main: time 2019-11-26_20:42:45 on domain   1:    1.08587 elapsed seconds
Timing for main: time 2019-11-26_20:43:00 on domain   1:    1.08825 elapsed seconds
Timing for main: time 2019-11-26_20:43:15 on domain   1:    1.08627 elapsed seconds
Timing for main: time 2019-11-26_20:43:30 on domain   1:    1.08118 elapsed seconds
Timing for main: time 2019-11-26_20:43:45 on domain   1:    1.09004 elapsed seconds
Timing for main: time 2019-11-26_20:44:00 on domain   1:    1.08736 elapsed seconds
Timing for main: time 2019-11-26_20:44:15 on domain   1:    1.08246 elapsed seconds
Timing for main: time 2019-11-26_20:44:30 on domain   1:    1.09016 elapsed seconds
Timing for main: time 2019-11-26_20:44:45 on domain   1:    1.07964 elapsed seconds
Timing for main: time 2019-11-26_20:45:00 on domain   1:    1.07305 elapsed seconds
Timing for main: time 2019-11-26_20:45:15 on domain   1:    1.08676 elapsed seconds
Timing for main: time 2019-11-26_20:45:30 on domain   1:    1.08489 elapsed seconds
Timing for main: time 2019-11-26_20:45:45 on domain   1:    1.09335 elapsed seconds
Timing for main: time 2019-11-26_20:46:00 on domain   1:    1.12108 elapsed seconds
Timing for main: time 2019-11-26_20:46:15 on domain   1:    1.08422 elapsed seconds
Timing for main: time 2019-11-26_20:46:30 on domain   1:    1.08185 elapsed seconds
Timing for main: time 2019-11-26_20:46:45 on domain   1:    1.09068 elapsed seconds
Timing for main: time 2019-11-26_20:47:00 on domain   1:    1.08503 elapsed seconds
Timing for main: time 2019-11-26_20:47:15 on domain   1:    1.07972 elapsed seconds
Timing for main: time 2019-11-26_20:47:30 on domain   1:    1.08745 elapsed seconds
Timing for main: time 2019-11-26_20:47:45 on domain   1:    1.08350 elapsed seconds
Timing for main: time 2019-11-26_20:48:00 on domain   1:    1.07876 elapsed seconds
Timing for main: time 2019-11-26_20:48:15 on domain   1:    1.08884 elapsed seconds
Timing for main: time 2019-11-26_20:48:30 on domain   1:    1.08740 elapsed seconds
Timing for main: time 2019-11-26_20:48:45 on domain   1:    1.07843 elapsed seconds
Timing for main: time 2019-11-26_20:49:00 on domain   1:    1.08240 elapsed seconds
Timing for main: time 2019-11-26_20:49:15 on domain   1:    1.08291 elapsed seconds
Timing for main: time 2019-11-26_20:49:30 on domain   1:    1.08128 elapsed seconds
Timing for main: time 2019-11-26_20:49:45 on domain   1:    1.08231 elapsed seconds
Timing for main: time 2019-11-26_20:50:00 on domain   1:    1.08132 elapsed seconds
Timing for main: time 2019-11-26_20:50:15 on domain   1:    8.56415 elapsed seconds
Timing for main: time 2019-11-26_20:50:30 on domain   1:    1.07737 elapsed seconds
Timing for main: time 2019-11-26_20:50:45 on domain   1:    1.08583 elapsed seconds
Timing for main: time 2019-11-26_20:51:00 on domain   1:    1.08051 elapsed seconds
Timing for main: time 2019-11-26_20:51:15 on domain   1:    1.08662 elapsed seconds
Timing for main: time 2019-11-26_20:51:30 on domain   1:    1.08303 elapsed seconds
Timing for main: time 2019-11-26_20:51:45 on domain   1:    1.07846 elapsed seconds
Timing for main: time 2019-11-26_20:52:00 on domain   1:    1.08399 elapsed seconds
Timing for main: time 2019-11-26_20:52:15 on domain   1:    1.08073 elapsed seconds
Timing for main: time 2019-11-26_20:52:30 on domain   1:    1.07756 elapsed seconds
Timing for main: time 2019-11-26_20:52:45 on domain   1:    1.08463 elapsed seconds
Timing for main: time 2019-11-26_20:53:00 on domain   1:    1.08433 elapsed seconds
Timing for main: time 2019-11-26_20:53:15 on domain   1:    1.07733 elapsed seconds
Timing for main: time 2019-11-26_20:53:30 on domain   1:    1.08208 elapsed seconds
Timing for main: time 2019-11-26_20:53:45 on domain   1:    1.08605 elapsed seconds
Timing for main: time 2019-11-26_20:54:00 on domain   1:    1.07902 elapsed seconds
Timing for main: time 2019-11-26_20:54:15 on domain   1:    1.08729 elapsed seconds
Timing for main: time 2019-11-26_20:54:30 on domain   1:    1.08363 elapsed seconds
Timing for main: time 2019-11-26_20:54:45 on domain   1:    1.07778 elapsed seconds
Timing for main: time 2019-11-26_20:55:00 on domain   1:    1.08034 elapsed seconds
Timing for main: time 2019-11-26_20:55:15 on domain   1:    1.08482 elapsed seconds
Timing for main: time 2019-11-26_20:55:30 on domain   1:    1.07990 elapsed seconds
Timing for main: time 2019-11-26_20:55:45 on domain   1:    1.08685 elapsed seconds
Timing for main: time 2019-11-26_20:56:00 on domain   1:    1.08347 elapsed seconds
Timing for main: time 2019-11-26_20:56:15 on domain   1:    1.08037 elapsed seconds
Timing for main: time 2019-11-26_20:56:30 on domain   1:    1.08263 elapsed seconds
Timing for main: time 2019-11-26_20:56:45 on domain   1:    1.08892 elapsed seconds
Timing for main: time 2019-11-26_20:57:00 on domain   1:    1.08361 elapsed seconds
Timing for main: time 2019-11-26_20:57:15 on domain   1:    1.08528 elapsed seconds
Timing for main: time 2019-11-26_20:57:30 on domain   1:    1.08438 elapsed seconds
Timing for main: time 2019-11-26_20:57:45 on domain   1:    1.08364 elapsed seconds
Timing for main: time 2019-11-26_20:58:00 on domain   1:    1.08688 elapsed seconds
Timing for main: time 2019-11-26_20:58:15 on domain   1:    1.08832 elapsed seconds
Timing for main: time 2019-11-26_20:58:30 on domain   1:    1.08023 elapsed seconds
Timing for main: time 2019-11-26_20:58:45 on domain   1:    1.08460 elapsed seconds
Timing for main: time 2019-11-26_20:59:00 on domain   1:    1.08227 elapsed seconds
Timing for main: time 2019-11-26_20:59:15 on domain   1:    1.08134 elapsed seconds
Timing for main: time 2019-11-26_20:59:30 on domain   1:    1.08088 elapsed seconds
Timing for main: time 2019-11-26_20:59:45 on domain   1:    1.08339 elapsed seconds
Timing for main: time 2019-11-26_21:00:00 on domain   1:    1.08065 elapsed seconds
 mediation_integrate.G        1249 DATASET=HISTORY
 mediation_integrate.G        1250  grid%id            1  grid%oid            2
Timing for Writing wrfout_d01_2019-11-26_21:00:00 for domain        1:    5.66578 elapsed seconds
 Input data is acceptable to use: wrfbdy_d01
Timing for processing lateral boundary for domain        1:    1.19332 elapsed seconds
Timing for main: time 2019-11-26_21:00:15 on domain   1:   15.44975 elapsed seconds
Timing for main: time 2019-11-26_21:00:30 on domain   1:    1.08688 elapsed seconds
Timing for main: time 2019-11-26_21:00:45 on domain   1:    1.08411 elapsed seconds
Timing for main: time 2019-11-26_21:01:00 on domain   1:    1.07582 elapsed seconds
Timing for main: time 2019-11-26_21:01:15 on domain   1:    1.09082 elapsed seconds
Timing for main: time 2019-11-26_21:01:30 on domain   1:    1.08169 elapsed seconds
Timing for main: time 2019-11-26_21:01:45 on domain   1:    1.07885 elapsed seconds
Timing for main: time 2019-11-26_21:02:00 on domain   1:    1.08107 elapsed seconds
Timing for main: time 2019-11-26_21:02:15 on domain   1:    1.08658 elapsed seconds
Timing for main: time 2019-11-26_21:02:30 on domain   1:    1.08198 elapsed seconds
Timing for main: time 2019-11-26_21:02:45 on domain   1:    1.08043 elapsed seconds
Timing for main: time 2019-11-26_21:03:00 on domain   1:    1.08298 elapsed seconds
Timing for main: time 2019-11-26_21:03:15 on domain   1:    1.07952 elapsed seconds
Timing for main: time 2019-11-26_21:03:30 on domain   1:    1.09286 elapsed seconds
Timing for main: time 2019-11-26_21:03:45 on domain   1:    1.09657 elapsed seconds
Timing for main: time 2019-11-26_21:04:00 on domain   1:    1.07335 elapsed seconds
Timing for main: time 2019-11-26_21:04:15 on domain   1:    1.07495 elapsed seconds
Timing for main: time 2019-11-26_21:04:30 on domain   1:    1.08387 elapsed seconds
Timing for main: time 2019-11-26_21:04:45 on domain   1:    1.65412 elapsed seconds
Timing for main: time 2019-11-26_21:05:00 on domain   1:    2.54517 elapsed seconds
Timing for main: time 2019-11-26_21:05:15 on domain   1:    1.08395 elapsed seconds
Timing for main: time 2019-11-26_21:05:30 on domain   1:    1.07754 elapsed seconds
Timing for main: time 2019-11-26_21:05:45 on domain   1:    1.08998 elapsed seconds
Timing for main: time 2019-11-26_21:06:00 on domain   1:    1.07901 elapsed seconds
Timing for main: time 2019-11-26_21:06:15 on domain   1:    1.07908 elapsed seconds
Timing for main: time 2019-11-26_21:06:30 on domain   1:    1.08147 elapsed seconds
Timing for main: time 2019-11-26_21:06:45 on domain   1:    1.07795 elapsed seconds
Timing for main: time 2019-11-26_21:07:00 on domain   1:    1.07424 elapsed seconds
Timing for main: time 2019-11-26_21:07:15 on domain   1:    1.08037 elapsed seconds
Timing for main: time 2019-11-26_21:07:30 on domain   1:    1.08883 elapsed seconds
Timing for main: time 2019-11-26_21:07:45 on domain   1:    1.07440 elapsed seconds
Timing for main: time 2019-11-26_21:08:00 on domain   1:    1.08481 elapsed seconds
Timing for main: time 2019-11-26_21:08:15 on domain   1:    1.07632 elapsed seconds
Timing for main: time 2019-11-26_21:08:30 on domain   1:    1.07716 elapsed seconds
Timing for main: time 2019-11-26_21:08:45 on domain   1:    1.08622 elapsed seconds
Timing for main: time 2019-11-26_21:09:00 on domain   1:    1.07738 elapsed seconds
Timing for main: time 2019-11-26_21:09:15 on domain   1:    1.07626 elapsed seconds
Timing for main: time 2019-11-26_21:09:30 on domain   1:    1.08028 elapsed seconds
Timing for main: time 2019-11-26_21:09:45 on domain   1:    1.07721 elapsed seconds
Timing for main: time 2019-11-26_21:10:00 on domain   1:    1.07461 elapsed seconds
Timing for main: time 2019-11-26_21:10:15 on domain   1:    8.60168 elapsed seconds
Timing for main: time 2019-11-26_21:10:30 on domain   1:    1.08621 elapsed seconds
Timing for main: time 2019-11-26_21:10:45 on domain   1:    1.07917 elapsed seconds
Timing for main: time 2019-11-26_21:11:00 on domain   1:    1.08286 elapsed seconds
Timing for main: time 2019-11-26_21:11:15 on domain   1:    1.07793 elapsed seconds
Timing for main: time 2019-11-26_21:11:30 on domain   1:    1.07928 elapsed seconds
Timing for main: time 2019-11-26_21:11:45 on domain   1:    1.08318 elapsed seconds
Timing for main: time 2019-11-26_21:12:00 on domain   1:    1.08000 elapsed seconds
Timing for main: time 2019-11-26_21:12:15 on domain   1:    1.07981 elapsed seconds
Timing for main: time 2019-11-26_21:12:30 on domain   1:    1.08037 elapsed seconds
Timing for main: time 2019-11-26_21:12:45 on domain   1:    1.07861 elapsed seconds
Timing for main: time 2019-11-26_21:13:00 on domain   1:    1.08026 elapsed seconds
Timing for main: time 2019-11-26_21:13:15 on domain   1:    1.08408 elapsed seconds
Timing for main: time 2019-11-26_21:13:30 on domain   1:    1.08218 elapsed seconds
Timing for main: time 2019-11-26_21:13:45 on domain   1:    1.07899 elapsed seconds
Timing for main: time 2019-11-26_21:14:00 on domain   1:    1.08241 elapsed seconds
Timing for main: time 2019-11-26_21:14:15 on domain   1:    1.07807 elapsed seconds
Timing for main: time 2019-11-26_21:14:30 on domain   1:    1.07967 elapsed seconds
Timing for main: time 2019-11-26_21:14:45 on domain   1:    1.08178 elapsed seconds
Timing for main: time 2019-11-26_21:15:00 on domain   1:    1.08225 elapsed seconds
Timing for main: time 2019-11-26_21:15:15 on domain   1:    1.08081 elapsed seconds
Timing for main: time 2019-11-26_21:15:30 on domain   1:    1.08003 elapsed seconds
Timing for main: time 2019-11-26_21:15:45 on domain   1:    1.07846 elapsed seconds
Timing for main: time 2019-11-26_21:16:00 on domain   1:    1.08581 elapsed seconds
Timing for main: time 2019-11-26_21:16:15 on domain   1:    1.08222 elapsed seconds
Timing for main: time 2019-11-26_21:16:30 on domain   1:    1.07976 elapsed seconds
Timing for main: time 2019-11-26_21:16:45 on domain   1:    1.08023 elapsed seconds
Timing for main: time 2019-11-26_21:17:00 on domain   1:    1.07949 elapsed seconds
Timing for main: time 2019-11-26_21:17:15 on domain   1:    1.08058 elapsed seconds
Timing for main: time 2019-11-26_21:17:30 on domain   1:    1.07803 elapsed seconds
Timing for main: time 2019-11-26_21:17:45 on domain   1:    1.08146 elapsed seconds
Timing for main: time 2019-11-26_21:18:00 on domain   1:    1.08046 elapsed seconds
Timing for main: time 2019-11-26_21:18:15 on domain   1:    1.07940 elapsed seconds
Timing for main: time 2019-11-26_21:18:30 on domain   1:    1.08360 elapsed seconds
Timing for main: time 2019-11-26_21:18:45 on domain   1:    1.08228 elapsed seconds
Timing for main: time 2019-11-26_21:19:00 on domain   1:    1.07928 elapsed seconds
Timing for main: time 2019-11-26_21:19:15 on domain   1:    1.08423 elapsed seconds
Timing for main: time 2019-11-26_21:19:30 on domain   1:    1.08254 elapsed seconds
Timing for main: time 2019-11-26_21:19:45 on domain   1:    1.08217 elapsed seconds
Timing for main: time 2019-11-26_21:20:00 on domain   1:    1.07888 elapsed seconds
Timing for main: time 2019-11-26_21:20:15 on domain   1:    8.57728 elapsed seconds
Timing for main: time 2019-11-26_21:20:30 on domain   1:    1.08064 elapsed seconds
Timing for main: time 2019-11-26_21:20:45 on domain   1:    1.08334 elapsed seconds
Timing for main: time 2019-11-26_21:21:00 on domain   1:    1.08586 elapsed seconds
Timing for main: time 2019-11-26_21:21:15 on domain   1:    1.08833 elapsed seconds
Timing for main: time 2019-11-26_21:21:30 on domain   1:    1.08620 elapsed seconds
Timing for main: time 2019-11-26_21:21:45 on domain   1:    1.08529 elapsed seconds
Timing for main: time 2019-11-26_21:22:00 on domain   1:    1.08185 elapsed seconds
Timing for main: time 2019-11-26_21:22:15 on domain   1:    1.08501 elapsed seconds
Timing for main: time 2019-11-26_21:22:30 on domain   1:    1.08935 elapsed seconds
Timing for main: time 2019-11-26_21:22:45 on domain   1:    1.08413 elapsed seconds
Timing for main: time 2019-11-26_21:23:00 on domain   1:    1.08426 elapsed seconds
Timing for main: time 2019-11-26_21:23:15 on domain   1:    1.08973 elapsed seconds
Timing for main: time 2019-11-26_21:23:30 on domain   1:    1.08537 elapsed seconds
Timing for main: time 2019-11-26_21:23:45 on domain   1:    1.08409 elapsed seconds
Timing for main: time 2019-11-26_21:24:00 on domain   1:    1.08782 elapsed seconds
Timing for main: time 2019-11-26_21:24:15 on domain   1:    1.08319 elapsed seconds
Timing for main: time 2019-11-26_21:24:30 on domain   1:    1.08467 elapsed seconds
Timing for main: time 2019-11-26_21:24:45 on domain   1:    1.08516 elapsed seconds
Timing for main: time 2019-11-26_21:25:00 on domain   1:    1.08653 elapsed seconds
Timing for main: time 2019-11-26_21:25:15 on domain   1:    1.08634 elapsed seconds
Timing for main: time 2019-11-26_21:25:30 on domain   1:    1.09151 elapsed seconds
Timing for main: time 2019-11-26_21:25:45 on domain   1:    1.08888 elapsed seconds
Timing for main: time 2019-11-26_21:26:00 on domain   1:    1.08505 elapsed seconds
Timing for main: time 2019-11-26_21:26:15 on domain   1:    1.08893 elapsed seconds
Timing for main: time 2019-11-26_21:26:30 on domain   1:    1.08646 elapsed seconds
Timing for main: time 2019-11-26_21:26:45 on domain   1:    1.08576 elapsed seconds
Timing for main: time 2019-11-26_21:27:00 on domain   1:    1.08824 elapsed seconds
Timing for main: time 2019-11-26_21:27:15 on domain   1:    1.08713 elapsed seconds
Timing for main: time 2019-11-26_21:27:30 on domain   1:    1.08724 elapsed seconds
Timing for main: time 2019-11-26_21:27:45 on domain   1:    1.10008 elapsed seconds
Timing for main: time 2019-11-26_21:28:00 on domain   1:    1.07840 elapsed seconds
Timing for main: time 2019-11-26_21:28:15 on domain   1:    1.08349 elapsed seconds
Timing for main: time 2019-11-26_21:28:30 on domain   1:    1.08706 elapsed seconds
Timing for main: time 2019-11-26_21:28:45 on domain   1:    1.08873 elapsed seconds
Timing for main: time 2019-11-26_21:29:00 on domain   1:    1.08888 elapsed seconds
Timing for main: time 2019-11-26_21:29:15 on domain   1:    1.08740 elapsed seconds
Timing for main: time 2019-11-26_21:29:30 on domain   1:    1.08573 elapsed seconds
Timing for main: time 2019-11-26_21:29:45 on domain   1:    1.78940 elapsed seconds
Timing for main: time 2019-11-26_21:30:00 on domain   1:    2.36131 elapsed seconds
Timing for main: time 2019-11-26_21:30:15 on domain   1:    8.64015 elapsed seconds
Timing for main: time 2019-11-26_21:30:30 on domain   1:    1.11218 elapsed seconds
Timing for main: time 2019-11-26_21:30:45 on domain   1:    1.08810 elapsed seconds
Timing for main: time 2019-11-26_21:31:00 on domain   1:    1.09433 elapsed seconds
Timing for main: time 2019-11-26_21:31:15 on domain   1:    1.09149 elapsed seconds
Timing for main: time 2019-11-26_21:31:30 on domain   1:    1.09124 elapsed seconds
Timing for main: time 2019-11-26_21:31:45 on domain   1:    1.08888 elapsed seconds
Timing for main: time 2019-11-26_21:32:00 on domain   1:    1.09140 elapsed seconds
Timing for main: time 2019-11-26_21:32:15 on domain   1:    1.08907 elapsed seconds
Timing for main: time 2019-11-26_21:32:30 on domain   1:    1.09924 elapsed seconds
Timing for main: time 2019-11-26_21:32:45 on domain   1:    1.08914 elapsed seconds
Timing for main: time 2019-11-26_21:33:00 on domain   1:    1.10156 elapsed seconds
Timing for main: time 2019-11-26_21:33:15 on domain   1:    1.09168 elapsed seconds
Timing for main: time 2019-11-26_21:33:30 on domain   1:    1.09124 elapsed seconds
Timing for main: time 2019-11-26_21:33:45 on domain   1:    1.09252 elapsed seconds
Timing for main: time 2019-11-26_21:34:00 on domain   1:    1.09205 elapsed seconds
Timing for main: time 2019-11-26_21:34:15 on domain   1:    1.09412 elapsed seconds
Timing for main: time 2019-11-26_21:34:30 on domain   1:    1.09106 elapsed seconds
Timing for main: time 2019-11-26_21:34:45 on domain   1:    1.09069 elapsed seconds
Timing for main: time 2019-11-26_21:35:00 on domain   1:    1.09171 elapsed seconds
Timing for main: time 2019-11-26_21:35:15 on domain   1:    1.09160 elapsed seconds
Timing for main: time 2019-11-26_21:35:30 on domain   1:    1.09321 elapsed seconds
Timing for main: time 2019-11-26_21:35:45 on domain   1:    1.09144 elapsed seconds
Timing for main: time 2019-11-26_21:36:00 on domain   1:    1.09217 elapsed seconds
Timing for main: time 2019-11-26_21:36:15 on domain   1:    1.09184 elapsed seconds
Timing for main: time 2019-11-26_21:36:30 on domain   1:    1.09377 elapsed seconds
Timing for main: time 2019-11-26_21:36:45 on domain   1:    1.09061 elapsed seconds
Timing for main: time 2019-11-26_21:37:00 on domain   1:    1.09547 elapsed seconds
Timing for main: time 2019-11-26_21:37:15 on domain   1:    1.09411 elapsed seconds
Timing for main: time 2019-11-26_21:37:30 on domain   1:    1.09156 elapsed seconds
Timing for main: time 2019-11-26_21:37:45 on domain   1:    1.09184 elapsed seconds
Timing for main: time 2019-11-26_21:38:00 on domain   1:    1.09223 elapsed seconds
Timing for main: time 2019-11-26_21:38:15 on domain   1:    1.10264 elapsed seconds
Timing for main: time 2019-11-26_21:38:30 on domain   1:    1.09141 elapsed seconds
Timing for main: time 2019-11-26_21:38:45 on domain   1:    1.09394 elapsed seconds
Timing for main: time 2019-11-26_21:39:00 on domain   1:    1.09352 elapsed seconds
Timing for main: time 2019-11-26_21:39:15 on domain   1:    1.08958 elapsed seconds
Timing for main: time 2019-11-26_21:39:30 on domain   1:    1.09712 elapsed seconds
Timing for main: time 2019-11-26_21:39:45 on domain   1:    1.09232 elapsed seconds
Timing for main: time 2019-11-26_21:40:00 on domain   1:    1.09055 elapsed seconds
Timing for main: time 2019-11-26_21:40:15 on domain   1:    8.61533 elapsed seconds
Timing for main: time 2019-11-26_21:40:30 on domain   1:    1.10286 elapsed seconds
Timing for main: time 2019-11-26_21:40:45 on domain   1:    1.09778 elapsed seconds
Timing for main: time 2019-11-26_21:41:00 on domain   1:    1.09769 elapsed seconds
Timing for main: time 2019-11-26_21:41:15 on domain   1:    1.09980 elapsed seconds
Timing for main: time 2019-11-26_21:41:30 on domain   1:    1.09818 elapsed seconds
Timing for main: time 2019-11-26_21:41:45 on domain   1:    1.09535 elapsed seconds
Timing for main: time 2019-11-26_21:42:00 on domain   1:    1.09771 elapsed seconds
Timing for main: time 2019-11-26_21:42:15 on domain   1:    1.09925 elapsed seconds
Timing for main: time 2019-11-26_21:42:30 on domain   1:    1.09886 elapsed seconds
Timing for main: time 2019-11-26_21:42:45 on domain   1:    1.09844 elapsed seconds
Timing for main: time 2019-11-26_21:43:00 on domain   1:    1.09898 elapsed seconds
Timing for main: time 2019-11-26_21:43:15 on domain   1:    1.09820 elapsed seconds
Timing for main: time 2019-11-26_21:43:30 on domain   1:    1.09780 elapsed seconds
Timing for main: time 2019-11-26_21:43:45 on domain   1:    1.09738 elapsed seconds
[...]
Timing for main: time 2019-11-26_23:01:30 on domain   1:    1.10849 elapsed seconds
Timing for main: time 2019-11-26_23:01:45 on domain   1:    1.11245 elapsed seconds
Timing for main: time 2019-11-26_23:02:00 on domain   1:    1.11066 elapsed seconds
Timing for main: time 2019-11-26_23:02:15 on domain   1:    1.11623 elapsed seconds
Timing for main: time 2019-11-26_23:02:30 on domain   1:    1.10872 elapsed seconds
Timing for main: time 2019-11-26_23:02:45 on domain   1:    1.11254 elapsed seconds
Timing for main: time 2019-11-26_23:03:00 on domain   1:    1.10705 elapsed seconds
Timing for main: time 2019-11-26_23:03:15 on domain   1:    1.11357 elapsed seconds
Timing for main: time 2019-11-26_23:03:30 on domain   1:    1.10776 elapsed seconds
Timing for main: time 2019-11-26_23:03:45 on domain   1:    1.11351 elapsed seconds
Timing for main: time 2019-11-26_23:04:00 on domain   1:    1.10773 elapsed seconds
Timing for main: time 2019-11-26_23:04:15 on domain   1:    1.11201 elapsed seconds
Timing for main: time 2019-11-26_23:04:30 on domain   1:    1.10661 elapsed seconds
Timing for main: time 2019-11-26_23:04:45 on domain   1:    1.11122 elapsed seconds
Timing for main: time 2019-11-26_23:05:00 on domain   1:    1.10811 elapsed seconds
Timing for main: time 2019-11-26_23:05:15 on domain   1:    1.11128 elapsed seconds
Timing for main: time 2019-11-26_23:05:30 on domain   1:    1.11092 elapsed seconds
Timing for main: time 2019-11-26_23:05:45 on domain   1:    1.11093 elapsed seconds
Timing for main: time 2019-11-26_23:06:00 on domain   1:    1.10901 elapsed seconds
Timing for main: time 2019-11-26_23:06:15 on domain   1:    1.10978 elapsed seconds
Timing for main: time 2019-11-26_23:06:30 on domain   1:    1.10927 elapsed seconds
Timing for main: time 2019-11-26_23:06:45 on domain   1:    1.10985 elapsed seconds
Timing for main: time 2019-11-26_23:07:00 on domain   1:    1.10697 elapsed seconds
Timing for main: time 2019-11-26_23:07:15 on domain   1:    1.11658 elapsed seconds
Timing for main: time 2019-11-26_23:07:30 on domain   1:    1.10627 elapsed seconds
Timing for main: time 2019-11-26_23:07:45 on domain   1:    1.11506 elapsed seconds
Timing for main: time 2019-11-26_23:08:00 on domain   1:    1.10325 elapsed seconds
Timing for main: time 2019-11-26_23:08:15 on domain   1:    1.11493 elapsed seconds
Timing for main: time 2019-11-26_23:08:30 on domain   1:    1.10710 elapsed seconds
Timing for main: time 2019-11-26_23:08:45 on domain   1:    1.11336 elapsed seconds
Timing for main: time 2019-11-26_23:09:00 on domain   1:    1.10755 elapsed seconds
Timing for main: time 2019-11-26_23:09:15 on domain   1:    1.11255 elapsed seconds
Timing for main: time 2019-11-26_23:09:30 on domain   1:    1.10496 elapsed seconds
Timing for main: time 2019-11-26_23:09:45 on domain   1:    1.11024 elapsed seconds
Timing for main: time 2019-11-26_23:10:00 on domain   1:    1.11010 elapsed seconds
Timing for main: time 2019-11-26_23:10:15 on domain   1:    8.23650 elapsed seconds
Timing for main: time 2019-11-26_23:10:30 on domain   1:    1.09824 elapsed seconds
Timing for main: time 2019-11-26_23:10:45 on domain   1:    1.11725 elapsed seconds
Timing for main: time 2019-11-26_23:11:00 on domain   1:    1.11815 elapsed seconds
Timing for main: time 2019-11-26_23:11:15 on domain   1:    1.12114 elapsed seconds
Timing for main: time 2019-11-26_23:11:30 on domain   1:    1.11688 elapsed seconds
Timing for main: time 2019-11-26_23:11:45 on domain   1:    1.11631 elapsed seconds
Timing for main: time 2019-11-26_23:12:00 on domain   1:    1.11567 elapsed seconds
Timing for main: time 2019-11-26_23:12:15 on domain   1:    1.11831 elapsed seconds
Timing for main: time 2019-11-26_23:12:30 on domain   1:    1.11574 elapsed seconds
Timing for main: time 2019-11-26_23:12:45 on domain   1:    1.11449 elapsed seconds
Timing for main: time 2019-11-26_23:13:00 on domain   1:    1.13065 elapsed seconds
Timing for main: time 2019-11-26_23:13:15 on domain   1:    1.11501 elapsed seconds
Timing for main: time 2019-11-26_23:13:30 on domain   1:    1.11525 elapsed seconds
Timing for main: time 2019-11-26_23:13:45 on domain   1:    1.13022 elapsed seconds
Timing for main: time 2019-11-26_23:14:00 on domain   1:    1.11980 elapsed seconds
Timing for main: time 2019-11-26_23:14:15 on domain   1:    1.11664 elapsed seconds
Timing for main: time 2019-11-26_23:14:30 on domain   1:    1.11745 elapsed seconds
Timing for main: time 2019-11-26_23:14:45 on domain   1:    1.11751 elapsed seconds
Timing for main: time 2019-11-26_23:15:00 on domain   1:    1.12013 elapsed seconds
Timing for main: time 2019-11-26_23:15:15 on domain   1:    1.11632 elapsed seconds
Timing for main: time 2019-11-26_23:15:30 on domain   1:    1.11678 elapsed seconds
Timing for main: time 2019-11-26_23:15:45 on domain   1:    1.11927 elapsed seconds
Timing for main: time 2019-11-26_23:16:00 on domain   1:    1.11346 elapsed seconds
Timing for main: time 2019-11-26_23:16:15 on domain   1:    1.11978 elapsed seconds
Timing for main: time 2019-11-26_23:16:30 on domain   1:    1.11633 elapsed seconds
Timing for main: time 2019-11-26_23:16:45 on domain   1:    1.11776 elapsed seconds
Timing for main: time 2019-11-26_23:17:00 on domain   1:    1.11802 elapsed seconds
Timing for main: time 2019-11-26_23:17:15 on domain   1:    1.17033 elapsed seconds
Timing for main: time 2019-11-26_23:17:30 on domain   1:    1.10648 elapsed seconds
Timing for main: time 2019-11-26_23:17:45 on domain   1:    1.11777 elapsed seconds
Timing for main: time 2019-11-26_23:18:00 on domain   1:    1.11665 elapsed seconds
Timing for main: time 2019-11-26_23:18:15 on domain   1:    1.11563 elapsed seconds
Timing for main: time 2019-11-26_23:18:30 on domain   1:    1.11684 elapsed seconds
Timing for main: time 2019-11-26_23:18:45 on domain   1:    1.11785 elapsed seconds
Timing for main: time 2019-11-26_23:19:00 on domain   1:    1.12145 elapsed seconds
Timing for main: time 2019-11-26_23:19:15 on domain   1:    1.12042 elapsed seconds
Timing for main: time 2019-11-26_23:19:30 on domain   1:    1.11859 elapsed seconds
Timing for main: time 2019-11-26_23:19:45 on domain   1:    1.11553 elapsed seconds
Timing for main: time 2019-11-26_23:20:00 on domain   1:    1.11706 elapsed seconds
Timing for main: time 2019-11-26_23:20:15 on domain   1:    8.27669 elapsed seconds
Timing for main: time 2019-11-26_23:20:30 on domain   1:    1.09979 elapsed seconds
Timing for main: time 2019-11-26_23:20:45 on domain   1:    1.11182 elapsed seconds
Timing for main: time 2019-11-26_23:21:00 on domain   1:    1.11188 elapsed seconds
Timing for main: time 2019-11-26_23:21:15 on domain   1:    2.53516 elapsed seconds
Timing for main: time 2019-11-26_23:21:30 on domain   1:    1.82257 elapsed seconds
Timing for main: time 2019-11-26_23:21:45 on domain   1:    1.11321 elapsed seconds
Timing for main: time 2019-11-26_23:22:00 on domain   1:    1.11649 elapsed seconds
Timing for main: time 2019-11-26_23:22:15 on domain   1:    1.12104 elapsed seconds
Timing for main: time 2019-11-26_23:22:30 on domain   1:    1.11196 elapsed seconds
Timing for main: time 2019-11-26_23:22:45 on domain   1:    1.10619 elapsed seconds
Timing for main: time 2019-11-26_23:23:00 on domain   1:    1.11065 elapsed seconds
Timing for main: time 2019-11-26_23:23:15 on domain   1:    1.11375 elapsed seconds
Timing for main: time 2019-11-26_23:23:30 on domain   1:    1.11484 elapsed seconds
Timing for main: time 2019-11-26_23:23:45 on domain   1:    1.10887 elapsed seconds
Timing for main: time 2019-11-26_23:24:00 on domain   1:    1.11165 elapsed seconds
Timing for main: time 2019-11-26_23:24:15 on domain   1:    1.11552 elapsed seconds
Timing for main: time 2019-11-26_23:24:30 on domain   1:    1.11314 elapsed seconds
Timing for main: time 2019-11-26_23:24:45 on domain   1:    1.11069 elapsed seconds
Timing for main: time 2019-11-26_23:25:00 on domain   1:    1.11429 elapsed seconds
Timing for main: time 2019-11-26_23:25:15 on domain   1:    1.11711 elapsed seconds
Timing for main: time 2019-11-26_23:25:30 on domain   1:    1.12724 elapsed seconds
Timing for main: time 2019-11-26_23:25:45 on domain   1:    1.10885 elapsed seconds
Timing for main: time 2019-11-26_23:26:00 on domain   1:    1.11635 elapsed seconds
Timing for main: time 2019-11-26_23:26:15 on domain   1:    1.11447 elapsed seconds
Timing for main: time 2019-11-26_23:26:30 on domain   1:    1.11336 elapsed seconds
Timing for main: time 2019-11-26_23:26:45 on domain   1:    1.11382 elapsed seconds
Timing for main: time 2019-11-26_23:27:00 on domain   1:    1.11203 elapsed seconds
Timing for main: time 2019-11-26_23:27:15 on domain   1:    1.11439 elapsed seconds
Timing for main: time 2019-11-26_23:27:30 on domain   1:    1.11382 elapsed seconds
Timing for main: time 2019-11-26_23:27:45 on domain   1:    1.11164 elapsed seconds
Timing for main: time 2019-11-26_23:28:00 on domain   1:    1.11444 elapsed seconds
Timing for main: time 2019-11-26_23:28:15 on domain   1:    1.11818 elapsed seconds
Timing for main: time 2019-11-26_23:28:30 on domain   1:    1.11202 elapsed seconds
Timing for main: time 2019-11-26_23:28:45 on domain   1:    1.11622 elapsed seconds
Timing for main: time 2019-11-26_23:29:00 on domain   1:    1.11736 elapsed seconds
Timing for main: time 2019-11-26_23:29:15 on domain   1:    1.11666 elapsed seconds
Timing for main: time 2019-11-26_23:29:30 on domain   1:    1.11628 elapsed seconds
Timing for main: time 2019-11-26_23:29:45 on domain   1:    1.11304 elapsed seconds
Timing for main: time 2019-11-26_23:30:00 on domain   1:    1.11798 elapsed seconds
Timing for main: time 2019-11-26_23:30:15 on domain   1:    8.27794 elapsed seconds
Timing for main: time 2019-11-26_23:30:30 on domain   1:    1.09749 elapsed seconds
Timing for main: time 2019-11-26_23:30:45 on domain   1:    1.11289 elapsed seconds
Timing for main: time 2019-11-26_23:31:00 on domain   1:    1.11651 elapsed seconds
Timing for main: time 2019-11-26_23:31:15 on domain   1:    1.12154 elapsed seconds
Timing for main: time 2019-11-26_23:31:30 on domain   1:    1.11395 elapsed seconds
Timing for main: time 2019-11-26_23:31:45 on domain   1:    1.11468 elapsed seconds
Timing for main: time 2019-11-26_23:32:00 on domain   1:    1.11501 elapsed seconds
Timing for main: time 2019-11-26_23:32:15 on domain   1:    1.12196 elapsed seconds
Timing for main: time 2019-11-26_23:32:30 on domain   1:    1.11973 elapsed seconds
Timing for main: time 2019-11-26_23:32:45 on domain   1:    1.11446 elapsed seconds
Timing for main: time 2019-11-26_23:33:00 on domain   1:    1.11667 elapsed seconds
Timing for main: time 2019-11-26_23:33:15 on domain   1:    1.11568 elapsed seconds
Timing for main: time 2019-11-26_23:33:30 on domain   1:    1.11597 elapsed seconds
Timing for main: time 2019-11-26_23:33:45 on domain   1:    1.11451 elapsed seconds
Timing for main: time 2019-11-26_23:34:00 on domain   1:    1.12738 elapsed seconds
Timing for main: time 2019-11-26_23:34:15 on domain   1:    1.11129 elapsed seconds
Timing for main: time 2019-11-26_23:34:30 on domain   1:    1.11678 elapsed seconds
Timing for main: time 2019-11-26_23:34:45 on domain   1:    1.11445 elapsed seconds
Timing for main: time 2019-11-26_23:35:00 on domain   1:    1.11595 elapsed seconds
Timing for main: time 2019-11-26_23:35:15 on domain   1:    1.11648 elapsed seconds
Timing for main: time 2019-11-26_23:35:30 on domain   1:    1.11505 elapsed seconds
Timing for main: time 2019-11-26_23:35:45 on domain   1:    1.11687 elapsed seconds
Timing for main: time 2019-11-26_23:36:00 on domain   1:    1.12676 elapsed seconds
Timing for main: time 2019-11-26_23:36:15 on domain   1:    1.11548 elapsed seconds
Timing for main: time 2019-11-26_23:36:30 on domain   1:    1.11707 elapsed seconds
Timing for main: time 2019-11-26_23:36:45 on domain   1:    1.11549 elapsed seconds
Timing for main: time 2019-11-26_23:37:00 on domain   1:    1.11595 elapsed seconds
Timing for main: time 2019-11-26_23:37:15 on domain   1:    1.11744 elapsed seconds
Timing for main: time 2019-11-26_23:37:30 on domain   1:    1.11729 elapsed seconds
Timing for main: time 2019-11-26_23:37:45 on domain   1:    1.11527 elapsed seconds
Timing for main: time 2019-11-26_23:38:00 on domain   1:    1.11528 elapsed seconds
Timing for main: time 2019-11-26_23:38:15 on domain   1:    1.11795 elapsed seconds
Timing for main: time 2019-11-26_23:38:30 on domain   1:    1.11576 elapsed seconds
Timing for main: time 2019-11-26_23:38:45 on domain   1:    1.11715 elapsed seconds
Timing for main: time 2019-11-26_23:39:00 on domain   1:    1.11633 elapsed seconds
Timing for main: time 2019-11-26_23:39:15 on domain   1:    1.11951 elapsed seconds
Timing for main: time 2019-11-26_23:39:30 on domain   1:    1.11884 elapsed seconds
Timing for main: time 2019-11-26_23:39:45 on domain   1:    1.11476 elapsed seconds
Timing for main: time 2019-11-26_23:40:00 on domain   1:    1.12088 elapsed seconds
Timing for main: time 2019-11-26_23:40:15 on domain   1:    8.31629 elapsed seconds
Timing for main: time 2019-11-26_23:40:30 on domain   1:    1.10398 elapsed seconds
Timing for main: time 2019-11-26_23:40:45 on domain   1:    1.10610 elapsed seconds
Timing for main: time 2019-11-26_23:41:00 on domain   1:    1.12414 elapsed seconds
Timing for main: time 2019-11-26_23:41:15 on domain   1:    1.10808 elapsed seconds
Timing for main: time 2019-11-26_23:41:30 on domain   1:    1.12694 elapsed seconds
Timing for main: time 2019-11-26_23:41:45 on domain   1:    1.12166 elapsed seconds
Timing for main: time 2019-11-26_23:42:00 on domain   1:    1.12220 elapsed seconds
Timing for main: time 2019-11-26_23:42:15 on domain   1:    1.13126 elapsed seconds
Timing for main: time 2019-11-26_23:42:30 on domain   1:    1.11654 elapsed seconds
Timing for main: time 2019-11-26_23:42:45 on domain   1:    1.12223 elapsed seconds
Timing for main: time 2019-11-26_23:43:00 on domain   1:    1.13329 elapsed seconds
Timing for main: time 2019-11-26_23:43:15 on domain   1:    1.11132 elapsed seconds
Timing for main: time 2019-11-26_23:43:30 on domain   1:    1.12466 elapsed seconds
Timing for main: time 2019-11-26_23:43:45 on domain   1:    1.11261 elapsed seconds
Timing for main: time 2019-11-26_23:44:00 on domain   1:    1.12350 elapsed seconds
Timing for main: time 2019-11-26_23:44:15 on domain   1:    1.13323 elapsed seconds
Timing for main: time 2019-11-26_23:44:30 on domain   1:    1.11399 elapsed seconds
Timing for main: time 2019-11-26_23:44:45 on domain   1:    1.12801 elapsed seconds
Timing for main: time 2019-11-26_23:45:00 on domain   1:    1.10703 elapsed seconds
Timing for main: time 2019-11-26_23:45:15 on domain   1:    1.12664 elapsed seconds
Timing for main: time 2019-11-26_23:45:30 on domain   1:    2.17619 elapsed seconds
Timing for main: time 2019-11-26_23:45:45 on domain   1:    2.09974 elapsed seconds
Timing for main: time 2019-11-26_23:46:00 on domain   1:    1.13269 elapsed seconds
Timing for main: time 2019-11-26_23:46:15 on domain   1:    1.11484 elapsed seconds
Timing for main: time 2019-11-26_23:46:30 on domain   1:    1.13096 elapsed seconds
Timing for main: time 2019-11-26_23:46:45 on domain   1:    1.12253 elapsed seconds
Timing for main: time 2019-11-26_23:47:00 on domain   1:    1.11425 elapsed seconds
Timing for main: time 2019-11-26_23:47:15 on domain   1:    1.12625 elapsed seconds
Timing for main: time 2019-11-26_23:47:30 on domain   1:    1.10763 elapsed seconds
Timing for main: time 2019-11-26_23:47:45 on domain   1:    1.13125 elapsed seconds
Timing for main: time 2019-11-26_23:48:00 on domain   1:    1.12480 elapsed seconds
Timing for main: time 2019-11-26_23:48:15 on domain   1:    1.11375 elapsed seconds
Timing for main: time 2019-11-26_23:48:30 on domain   1:    1.13348 elapsed seconds
Timing for main: time 2019-11-26_23:48:45 on domain   1:    1.11007 elapsed seconds
Timing for main: time 2019-11-26_23:49:00 on domain   1:    1.12586 elapsed seconds
Timing for main: time 2019-11-26_23:49:15 on domain   1:    1.12499 elapsed seconds
Timing for main: time 2019-11-26_23:49:30 on domain   1:    1.11186 elapsed seconds
Timing for main: time 2019-11-26_23:49:45 on domain   1:    1.13031 elapsed seconds
Timing for main: time 2019-11-26_23:50:00 on domain   1:    1.10805 elapsed seconds
Timing for main: time 2019-11-26_23:50:15 on domain   1:    8.31783 elapsed seconds
Timing for main: time 2019-11-26_23:50:30 on domain   1:    1.11605 elapsed seconds
Timing for main: time 2019-11-26_23:50:45 on domain   1:    1.12438 elapsed seconds
Timing for main: time 2019-11-26_23:51:00 on domain   1:    1.11374 elapsed seconds
Timing for main: time 2019-11-26_23:51:15 on domain   1:    1.12315 elapsed seconds
Timing for main: time 2019-11-26_23:51:30 on domain   1:    1.12397 elapsed seconds
Timing for main: time 2019-11-26_23:51:45 on domain   1:    1.12251 elapsed seconds
Timing for main: time 2019-11-26_23:52:00 on domain   1:    1.11760 elapsed seconds
Timing for main: time 2019-11-26_23:52:15 on domain   1:    1.12390 elapsed seconds
Timing for main: time 2019-11-26_23:52:30 on domain   1:    1.12347 elapsed seconds
Timing for main: time 2019-11-26_23:52:45 on domain   1:    1.12735 elapsed seconds
Timing for main: time 2019-11-26_23:53:00 on domain   1:    1.11641 elapsed seconds
Timing for main: time 2019-11-26_23:53:15 on domain   1:    1.12417 elapsed seconds
Timing for main: time 2019-11-26_23:53:30 on domain   1:    1.12479 elapsed seconds
Timing for main: time 2019-11-26_23:53:45 on domain   1:    1.12901 elapsed seconds
Timing for main: time 2019-11-26_23:54:00 on domain   1:    1.12156 elapsed seconds
Timing for main: time 2019-11-26_23:54:15 on domain   1:    1.12501 elapsed seconds
Timing for main: time 2019-11-26_23:54:30 on domain   1:    1.13460 elapsed seconds
Timing for main: time 2019-11-26_23:54:45 on domain   1:    1.13155 elapsed seconds
Timing for main: time 2019-11-26_23:55:00 on domain   1:    1.12054 elapsed seconds
Timing for main: time 2019-11-26_23:55:15 on domain   1:    1.12683 elapsed seconds
Timing for main: time 2019-11-26_23:55:30 on domain   1:    1.12774 elapsed seconds
Timing for main: time 2019-11-26_23:55:45 on domain   1:    1.12717 elapsed seconds
Timing for main: time 2019-11-26_23:56:00 on domain   1:    1.11945 elapsed seconds
Timing for main: time 2019-11-26_23:56:15 on domain   1:    1.12650 elapsed seconds
Timing for main: time 2019-11-26_23:56:30 on domain   1:    1.12823 elapsed seconds
Timing for main: time 2019-11-26_23:56:45 on domain   1:    1.13020 elapsed seconds
Timing for main: time 2019-11-26_23:57:00 on domain   1:    1.12151 elapsed seconds
Timing for main: time 2019-11-26_23:57:15 on domain   1:    1.13135 elapsed seconds
Timing for main: time 2019-11-26_23:57:30 on domain   1:    1.13293 elapsed seconds
Timing for main: time 2019-11-26_23:57:45 on domain   1:    1.13185 elapsed seconds
Timing for main: time 2019-11-26_23:58:00 on domain   1:    1.12474 elapsed seconds
Timing for main: time 2019-11-26_23:58:15 on domain   1:    1.13347 elapsed seconds
Timing for main: time 2019-11-26_23:58:30 on domain   1:    1.13099 elapsed seconds
Timing for main: time 2019-11-26_23:58:45 on domain   1:    1.13359 elapsed seconds
Timing for main: time 2019-11-26_23:59:00 on domain   1:    1.12459 elapsed seconds
Timing for main: time 2019-11-26_23:59:15 on domain   1:    1.12994 elapsed seconds
Timing for main: time 2019-11-26_23:59:30 on domain   1:    1.12963 elapsed seconds
Timing for main: time 2019-11-26_23:59:45 on domain   1:    1.13137 elapsed seconds
Timing for main: time 2019-11-27_00:00:00 on domain   1:    1.12509 elapsed seconds
 mediation_integrate.G        1249 DATASET=HISTORY
 mediation_integrate.G        1250  grid%id            1  grid%oid            2
Timing for Writing wrfout_d01_2019-11-27_00:00:00 for domain        1:    5.71968 elapsed seconds
wrf: SUCCESS COMPLETE WRF
