taskid: 0 hostname: x1006c6s4b0n0
 module_io_quilt_old.F        2931 F
Quilting with   1 groups of   0 I/O tasks.
 Ntasks in X           12 , ntasks in Y           16
*************************************
Configuring physics suite 'conus'

         mp_physics:      8
         cu_physics:      0*
      ra_lw_physics:      4
      ra_sw_physics:      4
     bl_pbl_physics:      2
  sf_sfclay_physics:      2
 sf_surface_physics:      2

(* = option overrides suite setting)
*************************************
Domain # 1: dx =  2500.000 m
WRF V4.7.1 MODEL
No git found or not a git repository, git commit version not available.
 *************************************
 Parent domain
 ids,ide,jds,jde            1        1501           1        1201
 ims,ime,jms,jme           -4         132          -4          82
 ips,ipe,jps,jpe            1         125           1          75
 *************************************
DYNAMICS OPTION: Eulerian Mass Coordinate
 alloc_space_field: domain            1 ,             395427244  bytes allocated
med_initialdata_input: calling input_input
 Input data is acceptable to use: wrfinput_d01
 CURRENT DATE          = 2019-11-26_18:00:00
 SIMULATION START DATE = 2019-11-26_18:00:00
Timing for processing wrfinput file (stream 0) for domain        1:   36.07110 elapsed seconds
Max map factor in domain 1 =  1.02. Scale the dt in the model accordingly.
 D01: Time step                              =    15.0000000      (s)
 D01: Grid Distance                          =    2.50000000      (km)
 D01: Grid Distance Ratio dt/dx              =    6.00000000      (s/km)
 D01: Ratio Including Maximum Map Factor     =    6.13815594      (s/km)
 D01: NML defined reasonable_time_step_ratio =    6.00000000
 Climate GHG input from file from year         1765  to         2499
 CO2   range =    277.91300000000001        579.26400000000001       ppm
 N2O   range =    274.37200000000001        359.79800000000000       ppb
 CH4   range =    738.98599999999999        997.31100000000004       ppb
 CFC11 range =    0.0000000000000000        1.4000000000000000E-002  ppt
 CFC12 range =    0.0000000000000000        2.8809999999999998       ppt
 Normal ending of CAMtr_volume_mixing_ratio file
 GHG annual values from CAM trace gas file
 Year =         2019 , Julian day =          330
 CO2   =    4.1280616288937283E-004  volume mixing ratio
 N2O   =    3.3164731848847696E-007  volume mixing ratio
 CH4   =    1.9046224215321381E-006  volume mixing ratio
 CFC11 =    2.1972312207550427E-010  volume mixing ratio
 CFC12 =    4.9756474391800364E-010  volume mixing ratio
INPUT LandUse = "MODIFIED_IGBP_MODIS_NOAH"
 LANDUSE TYPE = "MODIFIED_IGBP_MODIS_NOAH" FOUND          61  CATEGORIES           2  SEASONS WATER CATEGORY =           17  SNOW CATEGORY =           15
INITIALIZE THREE Noah LSM RELATED TABLES
Skipping over LUTYPE = USGS
 LANDUSE TYPE = MODIFIED_IGBP_MODIS_NOAH FOUND          20  CATEGORIES
 INPUT SOIL TEXTURE CLASSIFICATION = STAS
 SOIL TEXTURE CLASSIFICATION = STAS FOUND          19  CATEGORIES
ThompMP: computing qr_acr_qg table: qr_acr_qg_V4.dat
Timing for table computation qr_acr_qg_V4.dat:    3.74434 elapsed seconds
Writing qr_acr_qg_V4.dat     in Thompson MP init
ThompMP: read qr_acr_qsV2.dat instead of computing
ThompMP: read freezeH2O.dat instead of computing
 mediation_integrate.G        1249 DATASET=HISTORY
 mediation_integrate.G        1250  grid%id            1  grid%oid            1
Timing for Writing wrfout_d01_2019-11-26_18:00:00 for domain        1:    7.37758 elapsed seconds
 Input data is acceptable to use: wrfbdy_d01
Timing for processing lateral boundary for domain        1:    1.09391 elapsed seconds
WRF NUMBER OF TILES FROM OMP_GET_MAX_THREADS =   1
 Tile Strategy is not specified. Assuming 1D-Y
WRF TILE   1 IS      1 IE    125 JS      1 JE     75
WRF NUMBER OF TILES =   1
 ----------------------------------------
 W-DAMPING  BEGINS AT W-COURANT NUMBER =    1.00000000
 ----------------------------------------
Timing for main: time 2019-11-26_18:00:15 on domain   1:   23.28918 elapsed seconds
Timing for main: time 2019-11-26_18:00:30 on domain   1:    1.92280 elapsed seconds
Timing for main: time 2019-11-26_18:00:45 on domain   1:    1.92478 elapsed seconds
Timing for main: time 2019-11-26_18:01:00 on domain   1:    1.92260 elapsed seconds
Timing for main: time 2019-11-26_18:01:15 on domain   1:    1.92286 elapsed seconds
Timing for main: time 2019-11-26_18:01:30 on domain   1:    1.93138 elapsed seconds
Timing for main: time 2019-11-26_18:01:45 on domain   1:    1.92659 elapsed seconds
Timing for main: time 2019-11-26_18:02:00 on domain   1:    1.92909 elapsed seconds
Timing for main: time 2019-11-26_18:02:15 on domain   1:    1.92627 elapsed seconds
Timing for main: time 2019-11-26_18:02:30 on domain   1:    2.71095 elapsed seconds
Timing for main: time 2019-11-26_18:02:45 on domain   1:    1.92637 elapsed seconds
Timing for main: time 2019-11-26_18:03:00 on domain   1:    1.92256 elapsed seconds
Timing for main: time 2019-11-26_18:03:15 on domain   1:    1.92876 elapsed seconds
Timing for main: time 2019-11-26_18:03:30 on domain   1:    1.93026 elapsed seconds
Timing for main: time 2019-11-26_18:03:45 on domain   1:    1.93313 elapsed seconds
Timing for main: time 2019-11-26_18:04:00 on domain   1:    1.93640 elapsed seconds
Timing for main: time 2019-11-26_18:04:15 on domain   1:    1.92917 elapsed seconds
Timing for main: time 2019-11-26_18:04:30 on domain   1:    1.93766 elapsed seconds
Timing for main: time 2019-11-26_18:04:45 on domain   1:    1.93002 elapsed seconds
Timing for main: time 2019-11-26_18:05:00 on domain   1:    1.93267 elapsed seconds
Timing for main: time 2019-11-26_18:05:15 on domain   1:    1.93522 elapsed seconds
Timing for main: time 2019-11-26_18:05:30 on domain   1:    1.93269 elapsed seconds
Timing for main: time 2019-11-26_18:05:45 on domain   1:    1.94002 elapsed seconds
Timing for main: time 2019-11-26_18:06:00 on domain   1:    1.93129 elapsed seconds
Timing for main: time 2019-11-26_18:06:15 on domain   1:    1.93737 elapsed seconds
Timing for main: time 2019-11-26_18:06:30 on domain   1:    1.93415 elapsed seconds
Timing for main: time 2019-11-26_18:06:45 on domain   1:    1.93909 elapsed seconds
Timing for main: time 2019-11-26_18:07:00 on domain   1:    1.94134 elapsed seconds
Timing for main: time 2019-11-26_18:07:15 on domain   1:    1.94069 elapsed seconds
Timing for main: time 2019-11-26_18:07:30 on domain   1:    1.93696 elapsed seconds
Timing for main: time 2019-11-26_18:07:45 on domain   1:    1.94124 elapsed seconds
Timing for main: time 2019-11-26_18:08:00 on domain   1:    1.94054 elapsed seconds
Timing for main: time 2019-11-26_18:08:15 on domain   1:    1.94055 elapsed seconds
Timing for main: time 2019-11-26_18:08:30 on domain   1:    1.94171 elapsed seconds
Timing for main: time 2019-11-26_18:08:45 on domain   1:    1.94202 elapsed seconds
Timing for main: time 2019-11-26_18:09:00 on domain   1:    1.94143 elapsed seconds
Timing for main: time 2019-11-26_18:09:15 on domain   1:    1.94062 elapsed seconds
Timing for main: time 2019-11-26_18:09:30 on domain   1:    1.94240 elapsed seconds
Timing for main: time 2019-11-26_18:09:45 on domain   1:    1.94504 elapsed seconds
Timing for main: time 2019-11-26_18:10:00 on domain   1:    2.20877 elapsed seconds
Timing for main: time 2019-11-26_18:10:15 on domain   1:   15.16880 elapsed seconds
Timing for main: time 2019-11-26_18:10:30 on domain   1:    1.94088 elapsed seconds
Timing for main: time 2019-11-26_18:10:45 on domain   1:    1.94289 elapsed seconds
Timing for main: time 2019-11-26_18:11:00 on domain   1:    1.93290 elapsed seconds
Timing for main: time 2019-11-26_18:11:15 on domain   1:    1.94030 elapsed seconds
Timing for main: time 2019-11-26_18:11:30 on domain   1:    1.94086 elapsed seconds
Timing for main: time 2019-11-26_18:11:45 on domain   1:    1.93698 elapsed seconds
Timing for main: time 2019-11-26_18:12:00 on domain   1:    1.94071 elapsed seconds
Timing for main: time 2019-11-26_18:12:15 on domain   1:    1.93780 elapsed seconds
Timing for main: time 2019-11-26_18:12:30 on domain   1:    1.94455 elapsed seconds
Timing for main: time 2019-11-26_18:12:45 on domain   1:    1.93501 elapsed seconds
Timing for main: time 2019-11-26_18:13:00 on domain   1:    1.93893 elapsed seconds
Timing for main: time 2019-11-26_18:13:15 on domain   1:    1.94521 elapsed seconds
Timing for main: time 2019-11-26_18:13:30 on domain   1:    1.94720 elapsed seconds
Timing for main: time 2019-11-26_18:13:45 on domain   1:    1.94061 elapsed seconds
Timing for main: time 2019-11-26_18:14:00 on domain   1:    1.94481 elapsed seconds
Timing for main: time 2019-11-26_18:14:15 on domain   1:    1.94374 elapsed seconds
Timing for main: time 2019-11-26_18:14:30 on domain   1:    1.94445 elapsed seconds
Timing for main: time 2019-11-26_18:14:45 on domain   1:    1.95096 elapsed seconds
Timing for main: time 2019-11-26_18:15:00 on domain   1:    1.94700 elapsed seconds
Timing for main: time 2019-11-26_18:15:15 on domain   1:    1.95203 elapsed seconds
Timing for main: time 2019-11-26_18:15:30 on domain   1:    1.95222 elapsed seconds
Timing for main: time 2019-11-26_18:15:45 on domain   1:    1.94688 elapsed seconds
Timing for main: time 2019-11-26_18:16:00 on domain   1:    1.95416 elapsed seconds
Timing for main: time 2019-11-26_18:16:15 on domain   1:    2.76177 elapsed seconds
Timing for main: time 2019-11-26_18:16:30 on domain   1:    2.13137 elapsed seconds
Timing for main: time 2019-11-26_18:16:45 on domain   1:    1.93270 elapsed seconds
Timing for main: time 2019-11-26_18:17:00 on domain   1:    1.95479 elapsed seconds
Timing for main: time 2019-11-26_18:17:15 on domain   1:    1.95490 elapsed seconds
Timing for main: time 2019-11-26_18:17:30 on domain   1:    1.96323 elapsed seconds
Timing for main: time 2019-11-26_18:17:45 on domain   1:    1.95955 elapsed seconds
Timing for main: time 2019-11-26_18:18:00 on domain   1:    1.96006 elapsed seconds
Timing for main: time 2019-11-26_18:18:15 on domain   1:    1.96150 elapsed seconds
Timing for main: time 2019-11-26_18:18:30 on domain   1:    1.96440 elapsed seconds
Timing for main: time 2019-11-26_18:18:45 on domain   1:    1.96429 elapsed seconds
Timing for main: time 2019-11-26_18:19:00 on domain   1:    1.96505 elapsed seconds
Timing for main: time 2019-11-26_18:19:15 on domain   1:    1.96667 elapsed seconds
Timing for main: time 2019-11-26_18:19:30 on domain   1:    1.96906 elapsed seconds
Timing for main: time 2019-11-26_18:19:45 on domain   1:    1.96804 elapsed seconds
Timing for main: time 2019-11-26_18:20:00 on domain   1:    1.97410 elapsed seconds
Timing for main: time 2019-11-26_18:20:15 on domain   1:   15.31559 elapsed seconds
Timing for main: time 2019-11-26_18:20:30 on domain   1:    1.97422 elapsed seconds
Timing for main: time 2019-11-26_18:20:45 on domain   1:    1.97163 elapsed seconds
Timing for main: time 2019-11-26_18:21:00 on domain   1:    1.97878 elapsed seconds
Timing for main: time 2019-11-26_18:21:15 on domain   1:    1.97055 elapsed seconds
Timing for main: time 2019-11-26_18:21:30 on domain   1:    1.98214 elapsed seconds
Timing for main: time 2019-11-26_18:21:45 on domain   1:    1.97619 elapsed seconds
Timing for main: time 2019-11-26_18:22:00 on domain   1:    1.98052 elapsed seconds
Timing for main: time 2019-11-26_18:22:15 on domain   1:    2.00891 elapsed seconds
Timing for main: time 2019-11-26_18:22:30 on domain   1:    2.32511 elapsed seconds
Timing for main: time 2019-11-26_18:22:45 on domain   1:    1.97768 elapsed seconds
Timing for main: time 2019-11-26_18:23:00 on domain   1:    1.98630 elapsed seconds
Timing for main: time 2019-11-26_18:23:15 on domain   1:    1.98247 elapsed seconds
Timing for main: time 2019-11-26_18:23:30 on domain   1:    1.99264 elapsed seconds
Timing for main: time 2019-11-26_18:23:45 on domain   1:    1.99031 elapsed seconds
Timing for main: time 2019-11-26_18:24:00 on domain   1:    1.98552 elapsed seconds
Timing for main: time 2019-11-26_18:24:15 on domain   1:    1.98790 elapsed seconds
Timing for main: time 2019-11-26_18:24:30 on domain   1:    1.99069 elapsed seconds
Timing for main: time 2019-11-26_18:24:45 on domain   1:    1.99245 elapsed seconds
Timing for main: time 2019-11-26_18:25:00 on domain   1:    1.99601 elapsed seconds
Timing for main: time 2019-11-26_18:25:15 on domain   1:    1.98855 elapsed seconds
Timing for main: time 2019-11-26_18:25:30 on domain   1:    1.99747 elapsed seconds
Timing for main: time 2019-11-26_18:25:45 on domain   1:    1.99374 elapsed seconds
Timing for main: time 2019-11-26_18:26:00 on domain   1:    2.00425 elapsed seconds
Timing for main: time 2019-11-26_18:26:15 on domain   1:    2.00694 elapsed seconds
Timing for main: time 2019-11-26_18:26:30 on domain   1:    1.99373 elapsed seconds
Timing for main: time 2019-11-26_18:26:45 on domain   1:    1.99695 elapsed seconds
Timing for main: time 2019-11-26_18:27:00 on domain   1:    2.00097 elapsed seconds
Timing for main: time 2019-11-26_18:27:15 on domain   1:    2.00648 elapsed seconds
Timing for main: time 2019-11-26_18:27:30 on domain   1:    2.01419 elapsed seconds
Timing for main: time 2019-11-26_18:27:45 on domain   1:    2.00114 elapsed seconds
Timing for main: time 2019-11-26_18:28:00 on domain   1:    2.00763 elapsed seconds
Timing for main: time 2019-11-26_18:28:15 on domain   1:    2.00351 elapsed seconds
Timing for main: time 2019-11-26_18:28:30 on domain   1:    2.01557 elapsed seconds
Timing for main: time 2019-11-26_18:28:45 on domain   1:    2.01831 elapsed seconds
Timing for main: time 2019-11-26_18:29:00 on domain   1:    2.00884 elapsed seconds
Timing for main: time 2019-11-26_18:29:15 on domain   1:    2.00661 elapsed seconds
Timing for main: time 2019-11-26_18:29:30 on domain   1:    2.01306 elapsed seconds
Timing for main: time 2019-11-26_18:29:45 on domain   1:    2.01488 elapsed seconds
Timing for main: time 2019-11-26_18:30:00 on domain   1:    2.83672 elapsed seconds
Timing for main: time 2019-11-26_18:30:15 on domain   1:   15.73659 elapsed seconds
Timing for main: time 2019-11-26_18:30:30 on domain   1:    2.01604 elapsed seconds
Timing for main: time 2019-11-26_18:30:45 on domain   1:    2.01220 elapsed seconds
Timing for main: time 2019-11-26_18:31:00 on domain   1:    2.01494 elapsed seconds
Timing for main: time 2019-11-26_18:31:15 on domain   1:    2.01776 elapsed seconds
Timing for main: time 2019-11-26_18:31:30 on domain   1:    2.02220 elapsed seconds
Timing for main: time 2019-11-26_18:31:45 on domain   1:    2.01407 elapsed seconds
Timing for main: time 2019-11-26_18:32:00 on domain   1:    2.02277 elapsed seconds
Timing for main: time 2019-11-26_18:32:15 on domain   1:    2.01745 elapsed seconds
Timing for main: time 2019-11-26_18:32:30 on domain   1:    2.02146 elapsed seconds
Timing for main: time 2019-11-26_18:32:45 on domain   1:    2.02223 elapsed seconds
Timing for main: time 2019-11-26_18:33:00 on domain   1:    2.02331 elapsed seconds
Timing for main: time 2019-11-26_18:33:15 on domain   1:    2.02367 elapsed seconds
Timing for main: time 2019-11-26_18:33:30 on domain   1:    2.02516 elapsed seconds
Timing for main: time 2019-11-26_18:33:45 on domain   1:    2.02655 elapsed seconds
Timing for main: time 2019-11-26_18:34:00 on domain   1:    2.02711 elapsed seconds
Timing for main: time 2019-11-26_18:34:15 on domain   1:    2.02739 elapsed seconds
Timing for main: time 2019-11-26_18:34:30 on domain   1:    2.03310 elapsed seconds
Timing for main: time 2019-11-26_18:34:45 on domain   1:    2.02591 elapsed seconds
Timing for main: time 2019-11-26_18:35:00 on domain   1:    2.03567 elapsed seconds
Timing for main: time 2019-11-26_18:35:15 on domain   1:    2.03170 elapsed seconds
Timing for main: time 2019-11-26_18:35:30 on domain   1:    2.26108 elapsed seconds
Timing for main: time 2019-11-26_18:35:45 on domain   1:    2.07663 elapsed seconds
Timing for main: time 2019-11-26_18:36:00 on domain   1:    2.03260 elapsed seconds
Timing for main: time 2019-11-26_18:36:15 on domain   1:    2.03124 elapsed seconds
Timing for main: time 2019-11-26_18:36:30 on domain   1:    2.03675 elapsed seconds
Timing for main: time 2019-11-26_18:36:45 on domain   1:    2.03114 elapsed seconds
Timing for main: time 2019-11-26_18:37:00 on domain   1:    2.03646 elapsed seconds
Timing for main: time 2019-11-26_18:37:15 on domain   1:    2.03087 elapsed seconds
Timing for main: time 2019-11-26_18:37:30 on domain   1:    2.03230 elapsed seconds
Timing for main: time 2019-11-26_18:37:45 on domain   1:    2.03506 elapsed seconds
Timing for main: time 2019-11-26_18:38:00 on domain   1:    2.03823 elapsed seconds
Timing for main: time 2019-11-26_18:38:15 on domain   1:    2.03834 elapsed seconds
Timing for main: time 2019-11-26_18:38:30 on domain   1:    2.03672 elapsed seconds
Timing for main: time 2019-11-26_18:38:45 on domain   1:    2.03331 elapsed seconds
Timing for main: time 2019-11-26_18:39:00 on domain   1:    2.03504 elapsed seconds
Timing for main: time 2019-11-26_18:39:15 on domain   1:    2.03814 elapsed seconds
Timing for main: time 2019-11-26_18:39:30 on domain   1:    2.04280 elapsed seconds
Timing for main: time 2019-11-26_18:39:45 on domain   1:    2.03253 elapsed seconds
Timing for main: time 2019-11-26_18:40:00 on domain   1:    2.04208 elapsed seconds
Timing for main: time 2019-11-26_18:40:15 on domain   1:   15.99938 elapsed seconds
Timing for main: time 2019-11-26_18:40:30 on domain   1:    2.04462 elapsed seconds
Timing for main: time 2019-11-26_18:40:45 on domain   1:    2.04117 elapsed seconds
Timing for main: time 2019-11-26_18:41:00 on domain   1:    2.05665 elapsed seconds
Timing for main: time 2019-11-26_18:41:15 on domain   1:    2.03752 elapsed seconds
Timing for main: time 2019-11-26_18:41:30 on domain   1:    2.04910 elapsed seconds
Timing for main: time 2019-11-26_18:41:45 on domain   1:    2.82228 elapsed seconds
Timing for main: time 2019-11-26_18:42:00 on domain   1:    2.01723 elapsed seconds
Timing for main: time 2019-11-26_18:42:15 on domain   1:    2.03449 elapsed seconds
Timing for main: time 2019-11-26_18:42:30 on domain   1:    2.05602 elapsed seconds
Timing for main: time 2019-11-26_18:42:45 on domain   1:    2.04672 elapsed seconds
Timing for main: time 2019-11-26_18:43:00 on domain   1:    2.04897 elapsed seconds
Timing for main: time 2019-11-26_18:43:15 on domain   1:    2.06335 elapsed seconds
Timing for main: time 2019-11-26_18:43:30 on domain   1:    2.04868 elapsed seconds
Timing for main: time 2019-11-26_18:43:45 on domain   1:    2.05343 elapsed seconds
Timing for main: time 2019-11-26_18:44:00 on domain   1:    2.06259 elapsed seconds
Timing for main: time 2019-11-26_18:44:15 on domain   1:    2.04976 elapsed seconds
Timing for main: time 2019-11-26_18:44:30 on domain   1:    2.06091 elapsed seconds
Timing for main: time 2019-11-26_18:44:45 on domain   1:    2.07235 elapsed seconds
Timing for main: time 2019-11-26_18:45:00 on domain   1:    2.05748 elapsed seconds
Timing for main: time 2019-11-26_18:45:15 on domain   1:    2.05770 elapsed seconds
Timing for main: time 2019-11-26_18:45:30 on domain   1:    2.07160 elapsed seconds
Timing for main: time 2019-11-26_18:45:45 on domain   1:    2.05862 elapsed seconds
Timing for main: time 2019-11-26_18:46:00 on domain   1:    2.05889 elapsed seconds
Timing for main: time 2019-11-26_18:46:15 on domain   1:    2.07527 elapsed seconds
Timing for main: time 2019-11-26_18:46:30 on domain   1:    2.06064 elapsed seconds
Timing for main: time 2019-11-26_18:46:45 on domain   1:    2.06456 elapsed seconds
Timing for main: time 2019-11-26_18:47:00 on domain   1:    2.07416 elapsed seconds
Timing for main: time 2019-11-26_18:47:15 on domain   1:    2.05929 elapsed seconds
Timing for main: time 2019-11-26_18:47:30 on domain   1:    2.07373 elapsed seconds
Timing for main: time 2019-11-26_18:47:45 on domain   1:    2.07207 elapsed seconds
Timing for main: time 2019-11-26_18:48:00 on domain   1:    2.06421 elapsed seconds
Timing for main: time 2019-11-26_18:48:15 on domain   1:    2.06799 elapsed seconds
Timing for main: time 2019-11-26_18:48:30 on domain   1:    2.07716 elapsed seconds
Timing for main: time 2019-11-26_18:48:45 on domain   1:    2.21619 elapsed seconds
Timing for main: time 2019-11-26_18:49:00 on domain   1:    2.19384 elapsed seconds
Timing for main: time 2019-11-26_18:49:15 on domain   1:    2.08439 elapsed seconds
Timing for main: time 2019-11-26_18:49:30 on domain   1:    2.06836 elapsed seconds
Timing for main: time 2019-11-26_18:49:45 on domain   1:    2.07151 elapsed seconds
Timing for main: time 2019-11-26_18:50:00 on domain   1:    2.08051 elapsed seconds
Timing for main: time 2019-11-26_18:50:15 on domain   1:   16.16636 elapsed seconds
Timing for main: time 2019-11-26_18:50:30 on domain   1:    2.07142 elapsed seconds
Timing for main: time 2019-11-26_18:50:45 on domain   1:    2.08946 elapsed seconds
Timing for main: time 2019-11-26_18:51:00 on domain   1:    2.08538 elapsed seconds
Timing for main: time 2019-11-26_18:51:15 on domain   1:    2.08341 elapsed seconds
Timing for main: time 2019-11-26_18:51:30 on domain   1:    2.07773 elapsed seconds
Timing for main: time 2019-11-26_18:51:45 on domain   1:    2.08238 elapsed seconds
Timing for main: time 2019-11-26_18:52:00 on domain   1:    2.08188 elapsed seconds
Timing for main: time 2019-11-26_18:52:15 on domain   1:    2.07639 elapsed seconds
Timing for main: time 2019-11-26_18:52:30 on domain   1:    2.07961 elapsed seconds
Timing for main: time 2019-11-26_18:52:45 on domain   1:    2.07891 elapsed seconds
Timing for main: time 2019-11-26_18:53:00 on domain   1:    2.08805 elapsed seconds
Timing for main: time 2019-11-26_18:53:15 on domain   1:    2.08334 elapsed seconds
Timing for main: time 2019-11-26_18:53:30 on domain   1:    2.08502 elapsed seconds
Timing for main: time 2019-11-26_18:53:45 on domain   1:    2.08350 elapsed seconds
Timing for main: time 2019-11-26_18:54:00 on domain   1:    2.08567 elapsed seconds
Timing for main: time 2019-11-26_18:54:15 on domain   1:    2.08559 elapsed seconds
Timing for main: time 2019-11-26_18:54:30 on domain   1:    2.08794 elapsed seconds
Timing for main: time 2019-11-26_18:54:45 on domain   1:    2.83540 elapsed seconds
Timing for main: time 2019-11-26_18:55:00 on domain   1:    2.05929 elapsed seconds
Timing for main: time 2019-11-26_18:55:15 on domain   1:    2.07482 elapsed seconds
Timing for main: time 2019-11-26_18:55:30 on domain   1:    2.08795 elapsed seconds
Timing for main: time 2019-11-26_18:55:45 on domain   1:    2.08712 elapsed seconds
Timing for main: time 2019-11-26_18:56:00 on domain   1:    2.09224 elapsed seconds
Timing for main: time 2019-11-26_18:56:15 on domain   1:    2.08665 elapsed seconds
Timing for main: time 2019-11-26_18:56:30 on domain   1:    2.09037 elapsed seconds
Timing for main: time 2019-11-26_18:56:45 on domain   1:    2.09412 elapsed seconds
Timing for main: time 2019-11-26_18:57:00 on domain   1:    2.08740 elapsed seconds
Timing for main: time 2019-11-26_18:57:15 on domain   1:    2.09224 elapsed seconds
Timing for main: time 2019-11-26_18:57:30 on domain   1:    2.09671 elapsed seconds
Timing for main: time 2019-11-26_18:57:45 on domain   1:    2.09765 elapsed seconds
Timing for main: time 2019-11-26_18:58:00 on domain   1:    2.09449 elapsed seconds
Timing for main: time 2019-11-26_18:58:15 on domain   1:    2.09578 elapsed seconds
Timing for main: time 2019-11-26_18:58:30 on domain   1:    2.09494 elapsed seconds
Timing for main: time 2019-11-26_18:58:45 on domain   1:    2.09766 elapsed seconds
Timing for main: time 2019-11-26_18:59:00 on domain   1:    2.09589 elapsed seconds
Timing for main: time 2019-11-26_18:59:15 on domain   1:    2.09932 elapsed seconds
Timing for main: time 2019-11-26_18:59:30 on domain   1:    2.10029 elapsed seconds
Timing for main: time 2019-11-26_18:59:45 on domain   1:    2.09876 elapsed seconds
Timing for main: time 2019-11-26_19:00:00 on domain   1:    2.10291 elapsed seconds
 mediation_integrate.G        1249 DATASET=HISTORY
 mediation_integrate.G        1250  grid%id            1  grid%oid            2
Timing for Writing wrfout_d01_2019-11-26_19:00:00 for domain        1:    7.56556 elapsed seconds
Timing for main: time 2019-11-26_19:00:15 on domain   1:   23.88144 elapsed seconds
Timing for main: time 2019-11-26_19:00:30 on domain   1:    2.10275 elapsed seconds
Timing for main: time 2019-11-26_19:00:45 on domain   1:    2.09856 elapsed seconds
Timing for main: time 2019-11-26_19:01:00 on domain   1:    2.10062 elapsed seconds
Timing for main: time 2019-11-26_19:01:15 on domain   1:    2.08919 elapsed seconds
Timing for main: time 2019-11-26_19:01:30 on domain   1:    2.10066 elapsed seconds
Timing for main: time 2019-11-26_19:01:45 on domain   1:    2.10216 elapsed seconds
Timing for main: time 2019-11-26_19:02:00 on domain   1:    2.09992 elapsed seconds
Timing for main: time 2019-11-26_19:02:15 on domain   1:    2.08876 elapsed seconds
Timing for main: time 2019-11-26_19:02:30 on domain   1:    2.10736 elapsed seconds
Timing for main: time 2019-11-26_19:02:45 on domain   1:    2.09757 elapsed seconds
Timing for main: time 2019-11-26_19:03:00 on domain   1:    2.10286 elapsed seconds
Timing for main: time 2019-11-26_19:03:15 on domain   1:    2.10337 elapsed seconds
Timing for main: time 2019-11-26_19:03:30 on domain   1:    2.10122 elapsed seconds
Timing for main: time 2019-11-26_19:03:45 on domain   1:    2.10462 elapsed seconds
Timing for main: time 2019-11-26_19:04:00 on domain   1:    2.10303 elapsed seconds
Timing for main: time 2019-11-26_19:04:15 on domain   1:    2.10148 elapsed seconds
Timing for main: time 2019-11-26_19:04:30 on domain   1:    2.10332 elapsed seconds
Timing for main: time 2019-11-26_19:04:45 on domain   1:    2.11002 elapsed seconds
Timing for main: time 2019-11-26_19:05:00 on domain   1:    2.10757 elapsed seconds
Timing for main: time 2019-11-26_19:05:15 on domain   1:    2.11452 elapsed seconds
Timing for main: time 2019-11-26_19:05:30 on domain   1:    2.10694 elapsed seconds
Timing for main: time 2019-11-26_19:05:45 on domain   1:    2.10877 elapsed seconds
Timing for main: time 2019-11-26_19:06:00 on domain   1:    2.10832 elapsed seconds
Timing for main: time 2019-11-26_19:06:15 on domain   1:    2.11137 elapsed seconds
Timing for main: time 2019-11-26_19:06:30 on domain   1:    2.11180 elapsed seconds
Timing for main: time 2019-11-26_19:06:45 on domain   1:    2.79081 elapsed seconds
Timing for main: time 2019-11-26_19:07:00 on domain   1:    2.11436 elapsed seconds
Timing for main: time 2019-11-26_19:07:15 on domain   1:    2.10962 elapsed seconds
Timing for main: time 2019-11-26_19:07:30 on domain   1:    2.11587 elapsed seconds
Timing for main: time 2019-11-26_19:07:45 on domain   1:    2.11122 elapsed seconds
Timing for main: time 2019-11-26_19:08:00 on domain   1:    2.11465 elapsed seconds
Timing for main: time 2019-11-26_19:08:15 on domain   1:    2.13122 elapsed seconds
Timing for main: time 2019-11-26_19:08:30 on domain   1:    2.11388 elapsed seconds
Timing for main: time 2019-11-26_19:08:45 on domain   1:    2.11761 elapsed seconds
Timing for main: time 2019-11-26_19:09:00 on domain   1:    2.11718 elapsed seconds
Timing for main: time 2019-11-26_19:09:15 on domain   1:    2.12722 elapsed seconds
Timing for main: time 2019-11-26_19:09:30 on domain   1:    2.11840 elapsed seconds
Timing for main: time 2019-11-26_19:09:45 on domain   1:    2.12032 elapsed seconds
Timing for main: time 2019-11-26_19:10:00 on domain   1:    2.12061 elapsed seconds
Timing for main: time 2019-11-26_19:10:15 on domain   1:   16.52228 elapsed seconds
Timing for main: time 2019-11-26_19:10:30 on domain   1:    2.12767 elapsed seconds
Timing for main: time 2019-11-26_19:10:45 on domain   1:    2.12502 elapsed seconds
Timing for main: time 2019-11-26_19:11:00 on domain   1:    2.14049 elapsed seconds
Timing for main: time 2019-11-26_19:11:15 on domain   1:    2.13961 elapsed seconds
Timing for main: time 2019-11-26_19:11:30 on domain   1:    2.13398 elapsed seconds
Timing for main: time 2019-11-26_19:11:45 on domain   1:    2.45647 elapsed seconds
Timing for main: time 2019-11-26_19:12:00 on domain   1:    2.14060 elapsed seconds
Timing for main: time 2019-11-26_19:12:15 on domain   1:    2.13607 elapsed seconds
Timing for main: time 2019-11-26_19:12:30 on domain   1:    2.13532 elapsed seconds
Timing for main: time 2019-11-26_19:12:45 on domain   1:    2.13798 elapsed seconds
Timing for main: time 2019-11-26_19:13:00 on domain   1:    2.13542 elapsed seconds
Timing for main: time 2019-11-26_19:13:15 on domain   1:    2.14052 elapsed seconds
Timing for main: time 2019-11-26_19:13:30 on domain   1:    2.14177 elapsed seconds
Timing for main: time 2019-11-26_19:13:45 on domain   1:    2.13305 elapsed seconds
Timing for main: time 2019-11-26_19:14:00 on domain   1:    2.13889 elapsed seconds
Timing for main: time 2019-11-26_19:14:15 on domain   1:    2.13849 elapsed seconds
Timing for main: time 2019-11-26_19:14:30 on domain   1:    2.13988 elapsed seconds
Timing for main: time 2019-11-26_19:14:45 on domain   1:    2.14043 elapsed seconds
Timing for main: time 2019-11-26_19:15:00 on domain   1:    2.13916 elapsed seconds
Timing for main: time 2019-11-26_19:15:15 on domain   1:    2.14105 elapsed seconds
Timing for main: time 2019-11-26_19:15:30 on domain   1:    2.14239 elapsed seconds
Timing for main: time 2019-11-26_19:15:45 on domain   1:    2.14246 elapsed seconds
Timing for main: time 2019-11-26_19:16:00 on domain   1:    2.15622 elapsed seconds
Timing for main: time 2019-11-26_19:16:15 on domain   1:    2.14191 elapsed seconds
Timing for main: time 2019-11-26_19:16:30 on domain   1:    2.14183 elapsed seconds
Timing for main: time 2019-11-26_19:16:45 on domain   1:    2.14548 elapsed seconds
Timing for main: time 2019-11-26_19:17:00 on domain   1:    2.14351 elapsed seconds
Timing for main: time 2019-11-26_19:17:15 on domain   1:    2.14378 elapsed seconds
Timing for main: time 2019-11-26_19:17:30 on domain   1:    2.14706 elapsed seconds
Timing for main: time 2019-11-26_19:17:45 on domain   1:    2.14868 elapsed seconds
Timing for main: time 2019-11-26_19:18:00 on domain   1:    2.15050 elapsed seconds
Timing for main: time 2019-11-26_19:18:15 on domain   1:    2.14942 elapsed seconds
Timing for main: time 2019-11-26_19:18:30 on domain   1:    2.14909 elapsed seconds
Timing for main: time 2019-11-26_19:18:45 on domain   1:    2.14969 elapsed seconds
Timing for main: time 2019-11-26_19:19:00 on domain   1:    2.54229 elapsed seconds
Timing for main: time 2019-11-26_19:19:15 on domain   1:    2.52770 elapsed seconds
Timing for main: time 2019-11-26_19:19:30 on domain   1:    2.13075 elapsed seconds
Timing for main: time 2019-11-26_19:19:45 on domain   1:    2.15173 elapsed seconds
Timing for main: time 2019-11-26_19:20:00 on domain   1:    2.14807 elapsed seconds
Timing for main: time 2019-11-26_19:20:15 on domain   1:   16.66369 elapsed seconds
Timing for main: time 2019-11-26_19:20:30 on domain   1:    2.13880 elapsed seconds
Timing for main: time 2019-11-26_19:20:45 on domain   1:    2.14493 elapsed seconds
Timing for main: time 2019-11-26_19:21:00 on domain   1:    2.14031 elapsed seconds
Timing for main: time 2019-11-26_19:21:15 on domain   1:    2.13335 elapsed seconds
Timing for main: time 2019-11-26_19:21:30 on domain   1:    2.14376 elapsed seconds
Timing for main: time 2019-11-26_19:21:45 on domain   1:    2.13945 elapsed seconds
Timing for main: time 2019-11-26_19:22:00 on domain   1:    2.13583 elapsed seconds
Timing for main: time 2019-11-26_19:22:15 on domain   1:    2.14233 elapsed seconds
Timing for main: time 2019-11-26_19:22:30 on domain   1:    2.14574 elapsed seconds
Timing for main: time 2019-11-26_19:22:45 on domain   1:    2.14581 elapsed seconds
Timing for main: time 2019-11-26_19:23:00 on domain   1:    2.14215 elapsed seconds
Timing for main: time 2019-11-26_19:23:15 on domain   1:    2.14161 elapsed seconds
Timing for main: time 2019-11-26_19:23:30 on domain   1:    2.14655 elapsed seconds
Timing for main: time 2019-11-26_19:23:45 on domain   1:    2.14078 elapsed seconds
Timing for main: time 2019-11-26_19:24:00 on domain   1:    2.45649 elapsed seconds
Timing for main: time 2019-11-26_19:24:15 on domain   1:    2.20076 elapsed seconds
Timing for main: time 2019-11-26_19:24:30 on domain   1:    2.14736 elapsed seconds
Timing for main: time 2019-11-26_19:24:45 on domain   1:    2.14827 elapsed seconds
Timing for main: time 2019-11-26_19:25:00 on domain   1:    2.14744 elapsed seconds
Timing for main: time 2019-11-26_19:25:15 on domain   1:    2.14385 elapsed seconds
Timing for main: time 2019-11-26_19:25:30 on domain   1:    2.14911 elapsed seconds
Timing for main: time 2019-11-26_19:25:45 on domain   1:    2.14628 elapsed seconds
Timing for main: time 2019-11-26_19:26:00 on domain   1:    2.14619 elapsed seconds
Timing for main: time 2019-11-26_19:26:15 on domain   1:    2.14768 elapsed seconds
Timing for main: time 2019-11-26_19:26:30 on domain   1:    2.15124 elapsed seconds
Timing for main: time 2019-11-26_19:26:45 on domain   1:    2.15038 elapsed seconds
Timing for main: time 2019-11-26_19:27:00 on domain   1:    2.14812 elapsed seconds
Timing for main: time 2019-11-26_19:27:15 on domain   1:    2.14818 elapsed seconds
Timing for main: time 2019-11-26_19:27:30 on domain   1:    2.15436 elapsed seconds
Timing for main: time 2019-11-26_19:27:45 on domain   1:    2.14770 elapsed seconds
Timing for main: time 2019-11-26_19:28:00 on domain   1:    2.14817 elapsed seconds
Timing for main: time 2019-11-26_19:28:15 on domain   1:    2.15369 elapsed seconds
Timing for main: time 2019-11-26_19:28:30 on domain   1:    2.15432 elapsed seconds
Timing for main: time 2019-11-26_19:28:45 on domain   1:    2.15411 elapsed seconds
Timing for main: time 2019-11-26_19:29:00 on domain   1:    2.14987 elapsed seconds
Timing for main: time 2019-11-26_19:29:15 on domain   1:    2.14956 elapsed seconds
Timing for main: time 2019-11-26_19:29:30 on domain   1:    2.15961 elapsed seconds
Timing for main: time 2019-11-26_19:29:45 on domain   1:    2.15350 elapsed seconds
Timing for main: time 2019-11-26_19:30:00 on domain   1:    2.15168 elapsed seconds
Timing for main: time 2019-11-26_19:30:15 on domain   1:   16.95358 elapsed seconds
Timing for main: time 2019-11-26_19:30:30 on domain   1:    2.16889 elapsed seconds
Timing for main: time 2019-11-26_19:30:45 on domain   1:    2.15765 elapsed seconds
Timing for main: time 2019-11-26_19:31:00 on domain   1:    2.15667 elapsed seconds
Timing for main: time 2019-11-26_19:31:15 on domain   1:    2.15806 elapsed seconds
Timing for main: time 2019-11-26_19:31:30 on domain   1:    2.15683 elapsed seconds
Timing for main: time 2019-11-26_19:31:45 on domain   1:    2.16152 elapsed seconds
Timing for main: time 2019-11-26_19:32:00 on domain   1:    2.15606 elapsed seconds
Timing for main: time 2019-11-26_19:32:15 on domain   1:    2.16049 elapsed seconds
Timing for main: time 2019-11-26_19:32:30 on domain   1:    2.15831 elapsed seconds
Timing for main: time 2019-11-26_19:32:45 on domain   1:    2.15600 elapsed seconds
Timing for main: time 2019-11-26_19:33:00 on domain   1:    2.15875 elapsed seconds
Timing for main: time 2019-11-26_19:33:15 on domain   1:    2.16127 elapsed seconds
Timing for main: time 2019-11-26_19:33:30 on domain   1:    2.16591 elapsed seconds
Timing for main: time 2019-11-26_19:33:45 on domain   1:    2.16521 elapsed seconds
Timing for main: time 2019-11-26_19:34:00 on domain   1:    2.15954 elapsed seconds
Timing for main: time 2019-11-26_19:34:15 on domain   1:    2.15937 elapsed seconds
Timing for main: time 2019-11-26_19:34:30 on domain   1:    2.16303 elapsed seconds
Timing for main: time 2019-11-26_19:34:45 on domain   1:    2.16600 elapsed seconds
Timing for main: time 2019-11-26_19:35:00 on domain   1:    2.15622 elapsed seconds
Timing for main: time 2019-11-26_19:35:15 on domain   1:    2.16768 elapsed seconds
Timing for main: time 2019-11-26_19:35:30 on domain   1:    2.16147 elapsed seconds
Timing for main: time 2019-11-26_19:35:45 on domain   1:    2.16395 elapsed seconds
Timing for main: time 2019-11-26_19:36:00 on domain   1:    2.16551 elapsed seconds
Timing for main: time 2019-11-26_19:36:15 on domain   1:    2.16387 elapsed seconds
Timing for main: time 2019-11-26_19:36:30 on domain   1:    2.46611 elapsed seconds
Timing for main: time 2019-11-26_19:36:45 on domain   1:    2.16377 elapsed seconds
Timing for main: time 2019-11-26_19:37:00 on domain   1:    2.16598 elapsed seconds
Timing for main: time 2019-11-26_19:37:15 on domain   1:    2.17095 elapsed seconds
Timing for main: time 2019-11-26_19:37:30 on domain   1:    2.16094 elapsed seconds
Timing for main: time 2019-11-26_19:37:45 on domain   1:    2.16319 elapsed seconds
Timing for main: time 2019-11-26_19:38:00 on domain   1:    2.16387 elapsed seconds
Timing for main: time 2019-11-26_19:38:15 on domain   1:    2.16654 elapsed seconds
Timing for main: time 2019-11-26_19:38:30 on domain   1:    2.16477 elapsed seconds
Timing for main: time 2019-11-26_19:38:45 on domain   1:    2.16154 elapsed seconds
Timing for main: time 2019-11-26_19:39:00 on domain   1:    2.15665 elapsed seconds
Timing for main: time 2019-11-26_19:39:15 on domain   1:    2.17504 elapsed seconds
Timing for main: time 2019-11-26_19:39:30 on domain   1:    2.16180 elapsed seconds
Timing for main: time 2019-11-26_19:39:45 on domain   1:    2.16131 elapsed seconds
Timing for main: time 2019-11-26_19:40:00 on domain   1:    2.15887 elapsed seconds
Timing for main: time 2019-11-26_19:40:15 on domain   1:   16.80339 elapsed seconds
Timing for main: time 2019-11-26_19:40:30 on domain   1:    2.16096 elapsed seconds
Timing for main: time 2019-11-26_19:40:45 on domain   1:    2.16345 elapsed seconds
Timing for main: time 2019-11-26_19:41:00 on domain   1:    2.16214 elapsed seconds
Timing for main: time 2019-11-26_19:41:15 on domain   1:    2.16280 elapsed seconds
Timing for main: time 2019-11-26_19:41:30 on domain   1:    2.16255 elapsed seconds
Timing for main: time 2019-11-26_19:41:45 on domain   1:    2.17124 elapsed seconds
Timing for main: time 2019-11-26_19:42:00 on domain   1:    2.16331 elapsed seconds
Timing for main: time 2019-11-26_19:42:15 on domain   1:    2.16435 elapsed seconds
Timing for main: time 2019-11-26_19:42:30 on domain   1:    2.15819 elapsed seconds
Timing for main: time 2019-11-26_19:42:45 on domain   1:    2.82154 elapsed seconds
Timing for main: time 2019-11-26_19:43:00 on domain   1:    2.16503 elapsed seconds
Timing for main: time 2019-11-26_19:43:15 on domain   1:    2.16222 elapsed seconds
Timing for main: time 2019-11-26_19:43:30 on domain   1:    2.16688 elapsed seconds
Timing for main: time 2019-11-26_19:43:45 on domain   1:    2.16210 elapsed seconds
Timing for main: time 2019-11-26_19:44:00 on domain   1:    2.16196 elapsed seconds
Timing for main: time 2019-11-26_19:44:15 on domain   1:    2.16252 elapsed seconds
Timing for main: time 2019-11-26_19:44:30 on domain   1:    2.15898 elapsed seconds
Timing for main: time 2019-11-26_19:44:45 on domain   1:    2.18766 elapsed seconds
Timing for main: time 2019-11-26_19:45:00 on domain   1:    2.16486 elapsed seconds
Timing for main: time 2019-11-26_19:45:15 on domain   1:    2.16315 elapsed seconds
Timing for main: time 2019-11-26_19:45:30 on domain   1:    2.16056 elapsed seconds
Timing for main: time 2019-11-26_19:45:45 on domain   1:    2.16473 elapsed seconds
Timing for main: time 2019-11-26_19:46:00 on domain   1:    2.16498 elapsed seconds
Timing for main: time 2019-11-26_19:46:15 on domain   1:    2.16184 elapsed seconds
Timing for main: time 2019-11-26_19:46:30 on domain   1:    2.16194 elapsed seconds
Timing for main: time 2019-11-26_19:46:45 on domain   1:    2.16278 elapsed seconds
Timing for main: time 2019-11-26_19:47:00 on domain   1:    2.16429 elapsed seconds
Timing for main: time 2019-11-26_19:47:15 on domain   1:    2.16797 elapsed seconds
Timing for main: time 2019-11-26_19:47:30 on domain   1:    2.16440 elapsed seconds
Timing for main: time 2019-11-26_19:47:45 on domain   1:    2.16554 elapsed seconds
Timing for main: time 2019-11-26_19:48:00 on domain   1:    2.16553 elapsed seconds
Timing for main: time 2019-11-26_19:48:15 on domain   1:    2.16543 elapsed seconds
Timing for main: time 2019-11-26_19:48:30 on domain   1:    2.16713 elapsed seconds
Timing for main: time 2019-11-26_19:48:45 on domain   1:    2.49476 elapsed seconds
Timing for main: time 2019-11-26_19:49:00 on domain   1:    2.18809 elapsed seconds
Timing for main: time 2019-11-26_19:49:15 on domain   1:    2.16218 elapsed seconds
Timing for main: time 2019-11-26_19:49:30 on domain   1:    2.17110 elapsed seconds
Timing for main: time 2019-11-26_19:49:45 on domain   1:    2.16977 elapsed seconds
Timing for main: time 2019-11-26_19:50:00 on domain   1:    2.16875 elapsed seconds
Timing for main: time 2019-11-26_19:50:15 on domain   1:   16.79497 elapsed seconds
Timing for main: time 2019-11-26_19:50:30 on domain   1:    2.17940 elapsed seconds
Timing for main: time 2019-11-26_19:50:45 on domain   1:    2.16020 elapsed seconds
Timing for main: time 2019-11-26_19:51:00 on domain   1:    2.17287 elapsed seconds
Timing for main: time 2019-11-26_19:51:15 on domain   1:    2.17052 elapsed seconds
Timing for main: time 2019-11-26_19:51:30 on domain   1:    2.17060 elapsed seconds
Timing for main: time 2019-11-26_19:51:45 on domain   1:    2.16958 elapsed seconds
Timing for main: time 2019-11-26_19:52:00 on domain   1:    2.16710 elapsed seconds
Timing for main: time 2019-11-26_19:52:15 on domain   1:    2.16095 elapsed seconds
Timing for main: time 2019-11-26_19:52:30 on domain   1:    2.18237 elapsed seconds
Timing for main: time 2019-11-26_19:52:45 on domain   1:    2.16779 elapsed seconds
Timing for main: time 2019-11-26_19:53:00 on domain   1:    2.16194 elapsed seconds
Timing for main: time 2019-11-26_19:53:15 on domain   1:    2.16905 elapsed seconds
Timing for main: time 2019-11-26_19:53:30 on domain   1:    2.16549 elapsed seconds
Timing for main: time 2019-11-26_19:53:45 on domain   1:    2.16619 elapsed seconds
Timing for main: time 2019-11-26_19:54:00 on domain   1:    2.16523 elapsed seconds
Timing for main: time 2019-11-26_19:54:15 on domain   1:    2.16173 elapsed seconds
Timing for main: time 2019-11-26_19:54:30 on domain   1:    2.16605 elapsed seconds
Timing for main: time 2019-11-26_19:54:45 on domain   1:    2.16726 elapsed seconds
Timing for main: time 2019-11-26_19:55:00 on domain   1:    2.16157 elapsed seconds
Timing for main: time 2019-11-26_19:55:15 on domain   1:    2.82036 elapsed seconds
Timing for main: time 2019-11-26_19:55:30 on domain   1:    2.16390 elapsed seconds
Timing for main: time 2019-11-26_19:55:45 on domain   1:    2.16222 elapsed seconds
Timing for main: time 2019-11-26_19:56:00 on domain   1:    2.16618 elapsed seconds
Timing for main: time 2019-11-26_19:56:15 on domain   1:    2.16017 elapsed seconds
Timing for main: time 2019-11-26_19:56:30 on domain   1:    2.16887 elapsed seconds
Timing for main: time 2019-11-26_19:56:45 on domain   1:    2.16493 elapsed seconds
Timing for main: time 2019-11-26_19:57:00 on domain   1:    2.16223 elapsed seconds
Timing for main: time 2019-11-26_19:57:15 on domain   1:    2.16588 elapsed seconds
Timing for main: time 2019-11-26_19:57:30 on domain   1:    2.16944 elapsed seconds
Timing for main: time 2019-11-26_19:57:45 on domain   1:    2.16747 elapsed seconds
Timing for main: time 2019-11-26_19:58:00 on domain   1:    2.15923 elapsed seconds
Timing for main: time 2019-11-26_19:58:15 on domain   1:    2.18064 elapsed seconds
Timing for main: time 2019-11-26_19:58:30 on domain   1:    2.19862 elapsed seconds
Timing for main: time 2019-11-26_19:58:45 on domain   1:    2.16007 elapsed seconds
Timing for main: time 2019-11-26_19:59:00 on domain   1:    2.16847 elapsed seconds
Timing for main: time 2019-11-26_19:59:15 on domain   1:    2.16639 elapsed seconds
Timing for main: time 2019-11-26_19:59:30 on domain   1:    2.16998 elapsed seconds
Timing for main: time 2019-11-26_19:59:45 on domain   1:    2.16302 elapsed seconds
Timing for main: time 2019-11-26_20:00:00 on domain   1:    2.16316 elapsed seconds
 mediation_integrate.G        1249 DATASET=HISTORY
 mediation_integrate.G        1250  grid%id            1  grid%oid            2
Timing for Writing wrfout_d01_2019-11-26_20:00:00 for domain        1:    8.18702 elapsed seconds
Timing for main: time 2019-11-26_20:00:15 on domain   1:   25.05811 elapsed seconds
Timing for main: time 2019-11-26_20:00:30 on domain   1:    2.15785 elapsed seconds
Timing for main: time 2019-11-26_20:00:45 on domain   1:    2.17224 elapsed seconds
Timing for main: time 2019-11-26_20:01:00 on domain   1:    2.16854 elapsed seconds
Timing for main: time 2019-11-26_20:01:15 on domain   1:    2.17443 elapsed seconds
Timing for main: time 2019-11-26_20:01:30 on domain   1:    2.17408 elapsed seconds
Timing for main: time 2019-11-26_20:01:45 on domain   1:    2.16349 elapsed seconds
Timing for main: time 2019-11-26_20:02:00 on domain   1:    2.17887 elapsed seconds
Timing for main: time 2019-11-26_20:02:15 on domain   1:    2.16889 elapsed seconds
Timing for main: time 2019-11-26_20:02:30 on domain   1:    2.17573 elapsed seconds
Timing for main: time 2019-11-26_20:02:45 on domain   1:    2.17763 elapsed seconds
Timing for main: time 2019-11-26_20:03:00 on domain   1:    2.16655 elapsed seconds
Timing for main: time 2019-11-26_20:03:15 on domain   1:    2.18074 elapsed seconds
Timing for main: time 2019-11-26_20:03:30 on domain   1:    2.16802 elapsed seconds
Timing for main: time 2019-11-26_20:03:45 on domain   1:    2.18718 elapsed seconds
Timing for main: time 2019-11-26_20:04:00 on domain   1:    2.17409 elapsed seconds
Timing for main: time 2019-11-26_20:04:15 on domain   1:    2.17618 elapsed seconds
Timing for main: time 2019-11-26_20:04:30 on domain   1:    2.18227 elapsed seconds
Timing for main: time 2019-11-26_20:04:45 on domain   1:    2.17392 elapsed seconds
Timing for main: time 2019-11-26_20:05:00 on domain   1:    2.17644 elapsed seconds
Timing for main: time 2019-11-26_20:05:15 on domain   1:    2.17755 elapsed seconds
Timing for main: time 2019-11-26_20:05:30 on domain   1:    2.17659 elapsed seconds
Timing for main: time 2019-11-26_20:05:45 on domain   1:    2.18744 elapsed seconds
Timing for main: time 2019-11-26_20:06:00 on domain   1:    2.16924 elapsed seconds
Timing for main: time 2019-11-26_20:06:15 on domain   1:    2.17475 elapsed seconds
Timing for main: time 2019-11-26_20:06:30 on domain   1:    2.17963 elapsed seconds
Timing for main: time 2019-11-26_20:06:45 on domain   1:    2.19093 elapsed seconds
Timing for main: time 2019-11-26_20:07:00 on domain   1:    2.88052 elapsed seconds
Timing for main: time 2019-11-26_20:07:15 on domain   1:    2.15809 elapsed seconds
Timing for main: time 2019-11-26_20:07:30 on domain   1:    2.19451 elapsed seconds
Timing for main: time 2019-11-26_20:07:45 on domain   1:    2.18439 elapsed seconds
Timing for main: time 2019-11-26_20:08:00 on domain   1:    2.17669 elapsed seconds
Timing for main: time 2019-11-26_20:08:15 on domain   1:    2.17856 elapsed seconds
Timing for main: time 2019-11-26_20:08:30 on domain   1:    2.17715 elapsed seconds
Timing for main: time 2019-11-26_20:08:45 on domain   1:    2.17832 elapsed seconds
Timing for main: time 2019-11-26_20:09:00 on domain   1:    2.18348 elapsed seconds
Timing for main: time 2019-11-26_20:09:15 on domain   1:    2.17404 elapsed seconds
Timing for main: time 2019-11-26_20:09:30 on domain   1:    2.17775 elapsed seconds
Timing for main: time 2019-11-26_20:09:45 on domain   1:    2.17507 elapsed seconds
Timing for main: time 2019-11-26_20:10:00 on domain   1:    2.18297 elapsed seconds
Timing for main: time 2019-11-26_20:10:15 on domain   1:   16.87500 elapsed seconds
Timing for main: time 2019-11-26_20:10:30 on domain   1:    2.16864 elapsed seconds
Timing for main: time 2019-11-26_20:10:45 on domain   1:    2.37500 elapsed seconds
Timing for main: time 2019-11-26_20:11:00 on domain   1:    2.27958 elapsed seconds
Timing for main: time 2019-11-26_20:11:15 on domain   1:    2.17846 elapsed seconds
Timing for main: time 2019-11-26_20:11:30 on domain   1:    2.17549 elapsed seconds
Timing for main: time 2019-11-26_20:11:45 on domain   1:    2.17395 elapsed seconds
Timing for main: time 2019-11-26_20:12:00 on domain   1:    2.19280 elapsed seconds
Timing for main: time 2019-11-26_20:12:15 on domain   1:    2.17087 elapsed seconds
Timing for main: time 2019-11-26_20:12:30 on domain   1:    2.18809 elapsed seconds
Timing for main: time 2019-11-26_20:12:45 on domain   1:    2.18170 elapsed seconds
Timing for main: time 2019-11-26_20:13:00 on domain   1:    2.18235 elapsed seconds
Timing for main: time 2019-11-26_20:13:15 on domain   1:    2.18268 elapsed seconds
Timing for main: time 2019-11-26_20:13:30 on domain   1:    2.18755 elapsed seconds
Timing for main: time 2019-11-26_20:13:45 on domain   1:    2.17699 elapsed seconds
Timing for main: time 2019-11-26_20:14:00 on domain   1:    2.17015 elapsed seconds
Timing for main: time 2019-11-26_20:14:15 on domain   1:    2.18169 elapsed seconds
Timing for main: time 2019-11-26_20:14:30 on domain   1:    2.18246 elapsed seconds
Timing for main: time 2019-11-26_20:14:45 on domain   1:    2.17290 elapsed seconds
Timing for main: time 2019-11-26_20:15:00 on domain   1:    2.18192 elapsed seconds
Timing for main: time 2019-11-26_20:15:15 on domain   1:    2.17376 elapsed seconds
Timing for main: time 2019-11-26_20:15:30 on domain   1:    2.17939 elapsed seconds
Timing for main: time 2019-11-26_20:15:45 on domain   1:    2.18104 elapsed seconds
Timing for main: time 2019-11-26_20:16:00 on domain   1:    2.17972 elapsed seconds
Timing for main: time 2019-11-26_20:16:15 on domain   1:    2.18221 elapsed seconds
Timing for main: time 2019-11-26_20:16:30 on domain   1:    2.18346 elapsed seconds
Timing for main: time 2019-11-26_20:16:45 on domain   1:    2.17857 elapsed seconds
Timing for main: time 2019-11-26_20:17:00 on domain   1:    2.18689 elapsed seconds
Timing for main: time 2019-11-26_20:17:15 on domain   1:    2.17715 elapsed seconds
Timing for main: time 2019-11-26_20:17:30 on domain   1:    2.18402 elapsed seconds
Timing for main: time 2019-11-26_20:17:45 on domain   1:    2.17611 elapsed seconds
Timing for main: time 2019-11-26_20:18:00 on domain   1:    2.18061 elapsed seconds
Timing for main: time 2019-11-26_20:18:15 on domain   1:    2.18116 elapsed seconds
Timing for main: time 2019-11-26_20:18:30 on domain   1:    2.21344 elapsed seconds
Timing for main: time 2019-11-26_20:18:45 on domain   1:    2.18535 elapsed seconds
Timing for main: time 2019-11-26_20:19:00 on domain   1:    2.17966 elapsed seconds
Timing for main: time 2019-11-26_20:19:15 on domain   1:    2.83487 elapsed seconds
Timing for main: time 2019-11-26_20:19:30 on domain   1:    2.16492 elapsed seconds
Timing for main: time 2019-11-26_20:19:45 on domain   1:    2.17336 elapsed seconds
Timing for main: time 2019-11-26_20:20:00 on domain   1:    2.18798 elapsed seconds
Timing for main: time 2019-11-26_20:20:15 on domain   1:   16.84598 elapsed seconds
Timing for main: time 2019-11-26_20:20:30 on domain   1:    2.18534 elapsed seconds
Timing for main: time 2019-11-26_20:20:45 on domain   1:    2.19507 elapsed seconds
Timing for main: time 2019-11-26_20:21:00 on domain   1:    2.18905 elapsed seconds
Timing for main: time 2019-11-26_20:21:15 on domain   1:    2.20126 elapsed seconds
Timing for main: time 2019-11-26_20:21:30 on domain   1:    2.20729 elapsed seconds
Timing for main: time 2019-11-26_20:21:45 on domain   1:    2.20473 elapsed seconds
Timing for main: time 2019-11-26_20:22:00 on domain   1:    2.21464 elapsed seconds
Timing for main: time 2019-11-26_20:22:15 on domain   1:    2.19602 elapsed seconds
Timing for main: time 2019-11-26_20:22:30 on domain   1:    2.18864 elapsed seconds
Timing for main: time 2019-11-26_20:22:45 on domain   1:    2.20863 elapsed seconds
Timing for main: time 2019-11-26_20:23:00 on domain   1:    2.20505 elapsed seconds
Timing for main: time 2019-11-26_20:23:15 on domain   1:    2.34460 elapsed seconds
Timing for main: time 2019-11-26_20:23:30 on domain   1:    2.41946 elapsed seconds
Timing for main: time 2019-11-26_20:23:45 on domain   1:    2.20943 elapsed seconds
Timing for main: time 2019-11-26_20:24:00 on domain   1:    2.22168 elapsed seconds
Timing for main: time 2019-11-26_20:24:15 on domain   1:    2.19840 elapsed seconds
Timing for main: time 2019-11-26_20:24:30 on domain   1:    2.20920 elapsed seconds
Timing for main: time 2019-11-26_20:24:45 on domain   1:    2.21201 elapsed seconds
Timing for main: time 2019-11-26_20:25:00 on domain   1:    2.20382 elapsed seconds
Timing for main: time 2019-11-26_20:25:15 on domain   1:    2.20688 elapsed seconds
Timing for main: time 2019-11-26_20:25:30 on domain   1:    2.19150 elapsed seconds
Timing for main: time 2019-11-26_20:25:45 on domain   1:    2.20676 elapsed seconds
Timing for main: time 2019-11-26_20:26:00 on domain   1:    2.21377 elapsed seconds
Timing for main: time 2019-11-26_20:26:15 on domain   1:    2.20875 elapsed seconds
Timing for main: time 2019-11-26_20:26:30 on domain   1:    2.20924 elapsed seconds
Timing for main: time 2019-11-26_20:26:45 on domain   1:    2.20367 elapsed seconds
Timing for main: time 2019-11-26_20:27:00 on domain   1:    2.19644 elapsed seconds
Timing for main: time 2019-11-26_20:27:15 on domain   1:    2.21064 elapsed seconds
Timing for main: time 2019-11-26_20:27:30 on domain   1:    2.22734 elapsed seconds
Timing for main: time 2019-11-26_20:27:45 on domain   1:    2.20970 elapsed seconds
Timing for main: time 2019-11-26_20:28:00 on domain   1:    2.19653 elapsed seconds
Timing for main: time 2019-11-26_20:28:15 on domain   1:    2.20101 elapsed seconds
Timing for main: time 2019-11-26_20:28:30 on domain   1:    2.19917 elapsed seconds
Timing for main: time 2019-11-26_20:28:45 on domain   1:    2.20907 elapsed seconds
Timing for main: time 2019-11-26_20:29:00 on domain   1:    2.21564 elapsed seconds
Timing for main: time 2019-11-26_20:29:15 on domain   1:    2.23429 elapsed seconds
Timing for main: time 2019-11-26_20:29:30 on domain   1:    2.20606 elapsed seconds
Timing for main: time 2019-11-26_20:29:45 on domain   1:    2.20670 elapsed seconds
Timing for main: time 2019-11-26_20:30:00 on domain   1:    2.19738 elapsed seconds
Timing for main: time 2019-11-26_20:30:15 on domain   1:   17.03426 elapsed seconds
Timing for main: time 2019-11-26_20:30:30 on domain   1:    2.17730 elapsed seconds
Timing for main: time 2019-11-26_20:30:45 on domain   1:    2.20590 elapsed seconds
Timing for main: time 2019-11-26_20:31:00 on domain   1:    2.18992 elapsed seconds
Timing for main: time 2019-11-26_20:31:15 on domain   1:    2.20315 elapsed seconds
Timing for main: time 2019-11-26_20:31:30 on domain   1:    2.19992 elapsed seconds
Timing for main: time 2019-11-26_20:31:45 on domain   1:    2.19857 elapsed seconds
Timing for main: time 2019-11-26_20:32:00 on domain   1:    2.19430 elapsed seconds
Timing for main: time 2019-11-26_20:32:15 on domain   1:    2.20016 elapsed seconds
Timing for main: time 2019-11-26_20:32:30 on domain   1:    2.20928 elapsed seconds
Timing for main: time 2019-11-26_20:32:45 on domain   1:    2.20560 elapsed seconds
Timing for main: time 2019-11-26_20:33:00 on domain   1:    2.19157 elapsed seconds
Timing for main: time 2019-11-26_20:33:15 on domain   1:    2.23196 elapsed seconds
Timing for main: time 2019-11-26_20:33:30 on domain   1:    2.19427 elapsed seconds
Timing for main: time 2019-11-26_20:33:45 on domain   1:    2.20801 elapsed seconds
Timing for main: time 2019-11-26_20:34:00 on domain   1:    2.19837 elapsed seconds
Timing for main: time 2019-11-26_20:34:15 on domain   1:    2.20905 elapsed seconds
Timing for main: time 2019-11-26_20:34:30 on domain   1:    2.21945 elapsed seconds
Timing for main: time 2019-11-26_20:34:45 on domain   1:    2.20762 elapsed seconds
Timing for main: time 2019-11-26_20:35:00 on domain   1:    2.19564 elapsed seconds
Timing for main: time 2019-11-26_20:35:15 on domain   1:    2.20842 elapsed seconds
Timing for main: time 2019-11-26_20:35:30 on domain   1:    2.23602 elapsed seconds
Timing for main: time 2019-11-26_20:35:45 on domain   1:    2.40319 elapsed seconds
Timing for main: time 2019-11-26_20:36:00 on domain   1:    2.22035 elapsed seconds
Timing for main: time 2019-11-26_20:36:15 on domain   1:    2.20702 elapsed seconds
Timing for main: time 2019-11-26_20:36:30 on domain   1:    2.19683 elapsed seconds
Timing for main: time 2019-11-26_20:36:45 on domain   1:    2.20355 elapsed seconds
Timing for main: time 2019-11-26_20:37:00 on domain   1:    2.19497 elapsed seconds
Timing for main: time 2019-11-26_20:37:15 on domain   1:    2.20492 elapsed seconds
Timing for main: time 2019-11-26_20:37:30 on domain   1:    2.19583 elapsed seconds
Timing for main: time 2019-11-26_20:37:45 on domain   1:    2.20911 elapsed seconds
Timing for main: time 2019-11-26_20:38:00 on domain   1:    2.19827 elapsed seconds
Timing for main: time 2019-11-26_20:38:15 on domain   1:    2.20805 elapsed seconds
Timing for main: time 2019-11-26_20:38:30 on domain   1:    2.19417 elapsed seconds
Timing for main: time 2019-11-26_20:38:45 on domain   1:    2.20583 elapsed seconds
Timing for main: time 2019-11-26_20:39:00 on domain   1:    2.20337 elapsed seconds
Timing for main: time 2019-11-26_20:39:15 on domain   1:    2.20564 elapsed seconds
Timing for main: time 2019-11-26_20:39:30 on domain   1:    2.20274 elapsed seconds
Timing for main: time 2019-11-26_20:39:45 on domain   1:    2.20824 elapsed seconds
Timing for main: time 2019-11-26_20:40:00 on domain   1:    2.19836 elapsed seconds
Timing for main: time 2019-11-26_20:40:15 on domain   1:   16.93585 elapsed seconds
Timing for main: time 2019-11-26_20:40:30 on domain   1:    2.19494 elapsed seconds
Timing for main: time 2019-11-26_20:40:45 on domain   1:    2.21744 elapsed seconds
Timing for main: time 2019-11-26_20:41:00 on domain   1:    2.21927 elapsed seconds
Timing for main: time 2019-11-26_20:41:15 on domain   1:    2.23726 elapsed seconds
Timing for main: time 2019-11-26_20:41:30 on domain   1:    2.21617 elapsed seconds
Timing for main: time 2019-11-26_20:41:45 on domain   1:    2.97492 elapsed seconds
Timing for main: time 2019-11-26_20:42:00 on domain   1:    2.15514 elapsed seconds
Timing for main: time 2019-11-26_20:42:15 on domain   1:    2.20808 elapsed seconds
Timing for main: time 2019-11-26_20:42:30 on domain   1:    2.21870 elapsed seconds
Timing for main: time 2019-11-26_20:42:45 on domain   1:    2.21104 elapsed seconds
Timing for main: time 2019-11-26_20:43:00 on domain   1:    2.24708 elapsed seconds
Timing for main: time 2019-11-26_20:43:15 on domain   1:    2.20753 elapsed seconds
Timing for main: time 2019-11-26_20:43:30 on domain   1:    2.21822 elapsed seconds
Timing for main: time 2019-11-26_20:43:45 on domain   1:    2.22091 elapsed seconds
Timing for main: time 2019-11-26_20:44:00 on domain   1:    2.21129 elapsed seconds
Timing for main: time 2019-11-26_20:44:15 on domain   1:    2.21756 elapsed seconds
Timing for main: time 2019-11-26_20:44:30 on domain   1:    2.24926 elapsed seconds
Timing for main: time 2019-11-26_20:44:45 on domain   1:    2.21811 elapsed seconds
Timing for main: time 2019-11-26_20:45:00 on domain   1:    2.23909 elapsed seconds
Timing for main: time 2019-11-26_20:45:15 on domain   1:    2.23110 elapsed seconds
Timing for main: time 2019-11-26_20:45:30 on domain   1:    2.20905 elapsed seconds
Timing for main: time 2019-11-26_20:45:45 on domain   1:    2.22121 elapsed seconds
Timing for main: time 2019-11-26_20:46:00 on domain   1:    2.22375 elapsed seconds
Timing for main: time 2019-11-26_20:46:15 on domain   1:    2.20760 elapsed seconds
Timing for main: time 2019-11-26_20:46:30 on domain   1:    2.24356 elapsed seconds
Timing for main: time 2019-11-26_20:46:45 on domain   1:    2.22759 elapsed seconds
Timing for main: time 2019-11-26_20:47:00 on domain   1:    2.23391 elapsed seconds
Timing for main: time 2019-11-26_20:47:15 on domain   1:    2.21791 elapsed seconds
Timing for main: time 2019-11-26_20:47:30 on domain   1:    2.51646 elapsed seconds
Timing for main: time 2019-11-26_20:47:45 on domain   1:    2.17048 elapsed seconds
Timing for main: time 2019-11-26_20:48:00 on domain   1:    2.21366 elapsed seconds
Timing for main: time 2019-11-26_20:48:15 on domain   1:    2.24187 elapsed seconds
Timing for main: time 2019-11-26_20:48:30 on domain   1:    2.20630 elapsed seconds
Timing for main: time 2019-11-26_20:48:45 on domain   1:    2.21955 elapsed seconds
Timing for main: time 2019-11-26_20:49:00 on domain   1:    2.23207 elapsed seconds
Timing for main: time 2019-11-26_20:49:15 on domain   1:    2.20586 elapsed seconds
Timing for main: time 2019-11-26_20:49:30 on domain   1:    2.20939 elapsed seconds
Timing for main: time 2019-11-26_20:49:45 on domain   1:    2.23549 elapsed seconds
Timing for main: time 2019-11-26_20:50:00 on domain   1:    2.20273 elapsed seconds
Timing for main: time 2019-11-26_20:50:15 on domain   1:   16.90415 elapsed seconds
Timing for main: time 2019-11-26_20:50:30 on domain   1:    2.20518 elapsed seconds
Timing for main: time 2019-11-26_20:50:45 on domain   1:    2.19945 elapsed seconds
Timing for main: time 2019-11-26_20:51:00 on domain   1:    2.21709 elapsed seconds
Timing for main: time 2019-11-26_20:51:15 on domain   1:    2.20620 elapsed seconds
Timing for main: time 2019-11-26_20:51:30 on domain   1:    2.21202 elapsed seconds
Timing for main: time 2019-11-26_20:51:45 on domain   1:    2.20843 elapsed seconds
Timing for main: time 2019-11-26_20:52:00 on domain   1:    2.20208 elapsed seconds
Timing for main: time 2019-11-26_20:52:15 on domain   1:    2.20828 elapsed seconds
Timing for main: time 2019-11-26_20:52:30 on domain   1:    2.21146 elapsed seconds
Timing for main: time 2019-11-26_20:52:45 on domain   1:    2.19401 elapsed seconds
Timing for main: time 2019-11-26_20:53:00 on domain   1:    2.22018 elapsed seconds
Timing for main: time 2019-11-26_20:53:15 on domain   1:    2.19464 elapsed seconds
Timing for main: time 2019-11-26_20:53:30 on domain   1:    2.22479 elapsed seconds
Timing for main: time 2019-11-26_20:53:45 on domain   1:    2.20702 elapsed seconds
Timing for main: time 2019-11-26_20:54:00 on domain   1:    2.99232 elapsed seconds
Timing for main: time 2019-11-26_20:54:15 on domain   1:    2.19004 elapsed seconds
Timing for main: time 2019-11-26_20:54:30 on domain   1:    2.19533 elapsed seconds
Timing for main: time 2019-11-26_20:54:45 on domain   1:    2.21624 elapsed seconds
Timing for main: time 2019-11-26_20:55:00 on domain   1:    2.20701 elapsed seconds
Timing for main: time 2019-11-26_20:55:15 on domain   1:    2.20741 elapsed seconds
Timing for main: time 2019-11-26_20:55:30 on domain   1:    2.21953 elapsed seconds
Timing for main: time 2019-11-26_20:55:45 on domain   1:    2.19891 elapsed seconds
Timing for main: time 2019-11-26_20:56:00 on domain   1:    2.21378 elapsed seconds
Timing for main: time 2019-11-26_20:56:15 on domain   1:    2.20759 elapsed seconds
Timing for main: time 2019-11-26_20:56:30 on domain   1:    2.21599 elapsed seconds
Timing for main: time 2019-11-26_20:56:45 on domain   1:    2.21093 elapsed seconds
Timing for main: time 2019-11-26_20:57:00 on domain   1:    2.20968 elapsed seconds
Timing for main: time 2019-11-26_20:57:15 on domain   1:    2.20520 elapsed seconds
Timing for main: time 2019-11-26_20:57:30 on domain   1:    2.22179 elapsed seconds
Timing for main: time 2019-11-26_20:57:45 on domain   1:    2.20594 elapsed seconds
Timing for main: time 2019-11-26_20:58:00 on domain   1:    2.22400 elapsed seconds
Timing for main: time 2019-11-26_20:58:15 on domain   1:    2.19890 elapsed seconds
Timing for main: time 2019-11-26_20:58:30 on domain   1:    2.21393 elapsed seconds
Timing for main: time 2019-11-26_20:58:45 on domain   1:    2.20909 elapsed seconds
Timing for main: time 2019-11-26_20:59:00 on domain   1:    2.21116 elapsed seconds
Timing for main: time 2019-11-26_20:59:15 on domain   1:    2.21676 elapsed seconds
Timing for main: time 2019-11-26_20:59:30 on domain   1:    2.20206 elapsed seconds
Timing for main: time 2019-11-26_20:59:45 on domain   1:    2.55554 elapsed seconds
Timing for main: time 2019-11-26_21:00:00 on domain   1:    2.23899 elapsed seconds
 mediation_integrate.G        1249 DATASET=HISTORY
 mediation_integrate.G        1250  grid%id            1  grid%oid            2
Timing for Writing wrfout_d01_2019-11-26_21:00:00 for domain        1:    8.01040 elapsed seconds
 Input data is acceptable to use: wrfbdy_d01
Timing for processing lateral boundary for domain        1:    0.98562 elapsed seconds
Timing for main: time 2019-11-26_21:00:15 on domain   1:   25.82453 elapsed seconds
Timing for main: time 2019-11-26_21:00:30 on domain   1:    2.23116 elapsed seconds
Timing for main: time 2019-11-26_21:00:45 on domain   1:    2.23780 elapsed seconds
Timing for main: time 2019-11-26_21:01:00 on domain   1:    2.25724 elapsed seconds
Timing for main: time 2019-11-26_21:01:15 on domain   1:    2.20991 elapsed seconds
Timing for main: time 2019-11-26_21:01:30 on domain   1:    2.23772 elapsed seconds
Timing for main: time 2019-11-26_21:01:45 on domain   1:    2.20828 elapsed seconds
Timing for main: time 2019-11-26_21:02:00 on domain   1:    2.20780 elapsed seconds
Timing for main: time 2019-11-26_21:02:15 on domain   1:    2.24063 elapsed seconds
Timing for main: time 2019-11-26_21:02:30 on domain   1:    2.20919 elapsed seconds
Timing for main: time 2019-11-26_21:02:45 on domain   1:    2.21955 elapsed seconds
Timing for main: time 2019-11-26_21:03:00 on domain   1:    2.24263 elapsed seconds
Timing for main: time 2019-11-26_21:03:15 on domain   1:    2.20626 elapsed seconds
Timing for main: time 2019-11-26_21:03:30 on domain   1:    2.21505 elapsed seconds
Timing for main: time 2019-11-26_21:03:45 on domain   1:    2.21883 elapsed seconds
Timing for main: time 2019-11-26_21:04:00 on domain   1:    2.21402 elapsed seconds
Timing for main: time 2019-11-26_21:04:15 on domain   1:    2.22526 elapsed seconds
Timing for main: time 2019-11-26_21:04:30 on domain   1:    2.21761 elapsed seconds
Timing for main: time 2019-11-26_21:04:45 on domain   1:    2.20533 elapsed seconds
Timing for main: time 2019-11-26_21:05:00 on domain   1:    2.21483 elapsed seconds
Timing for main: time 2019-11-26_21:05:15 on domain   1:    3.03478 elapsed seconds
Timing for main: time 2019-11-26_21:05:30 on domain   1:    2.20002 elapsed seconds
Timing for main: time 2019-11-26_21:05:45 on domain   1:    2.24588 elapsed seconds
Timing for main: time 2019-11-26_21:06:00 on domain   1:    2.24292 elapsed seconds
Timing for main: time 2019-11-26_21:06:15 on domain   1:    2.20615 elapsed seconds
Timing for main: time 2019-11-26_21:06:30 on domain   1:    2.21575 elapsed seconds
Timing for main: time 2019-11-26_21:06:45 on domain   1:    2.21301 elapsed seconds
Timing for main: time 2019-11-26_21:07:00 on domain   1:    2.21025 elapsed seconds
Timing for main: time 2019-11-26_21:07:15 on domain   1:    2.22858 elapsed seconds
Timing for main: time 2019-11-26_21:07:30 on domain   1:    2.21674 elapsed seconds
Timing for main: time 2019-11-26_21:07:45 on domain   1:    2.21168 elapsed seconds
Timing for main: time 2019-11-26_21:08:00 on domain   1:    2.23932 elapsed seconds
Timing for main: time 2019-11-26_21:08:15 on domain   1:    2.21325 elapsed seconds
Timing for main: time 2019-11-26_21:08:30 on domain   1:    2.21442 elapsed seconds
Timing for main: time 2019-11-26_21:08:45 on domain   1:    2.22049 elapsed seconds
Timing for main: time 2019-11-26_21:09:00 on domain   1:    2.24183 elapsed seconds
Timing for main: time 2019-11-26_21:09:15 on domain   1:    2.23434 elapsed seconds
Timing for main: time 2019-11-26_21:09:30 on domain   1:    2.24063 elapsed seconds
Timing for main: time 2019-11-26_21:09:45 on domain   1:    2.21868 elapsed seconds
Timing for main: time 2019-11-26_21:10:00 on domain   1:    2.22577 elapsed seconds
Timing for main: time 2019-11-26_21:10:15 on domain   1:   17.02513 elapsed seconds
Timing for main: time 2019-11-26_21:10:30 on domain   1:    2.20433 elapsed seconds
Timing for main: time 2019-11-26_21:10:45 on domain   1:    2.21584 elapsed seconds
Timing for main: time 2019-11-26_21:11:00 on domain   1:    2.22319 elapsed seconds
Timing for main: time 2019-11-26_21:11:15 on domain   1:    2.21365 elapsed seconds
Timing for main: time 2019-11-26_21:11:30 on domain   1:    2.22130 elapsed seconds
Timing for main: time 2019-11-26_21:11:45 on domain   1:    2.23786 elapsed seconds
Timing for main: time 2019-11-26_21:12:00 on domain   1:    2.21653 elapsed seconds
Timing for main: time 2019-11-26_21:12:15 on domain   1:    2.22536 elapsed seconds
Timing for main: time 2019-11-26_21:12:30 on domain   1:    2.21385 elapsed seconds
Timing for main: time 2019-11-26_21:12:45 on domain   1:    2.23921 elapsed seconds
Timing for main: time 2019-11-26_21:13:00 on domain   1:    2.21929 elapsed seconds
Timing for main: time 2019-11-26_21:13:15 on domain   1:    2.21557 elapsed seconds
Timing for main: time 2019-11-26_21:13:30 on domain   1:    2.21997 elapsed seconds
Timing for main: time 2019-11-26_21:13:45 on domain   1:    2.24069 elapsed seconds
Timing for main: time 2019-11-26_21:14:00 on domain   1:    2.24746 elapsed seconds
Timing for main: time 2019-11-26_21:14:15 on domain   1:    2.21712 elapsed seconds
Timing for main: time 2019-11-26_21:14:30 on domain   1:    2.22458 elapsed seconds
Timing for main: time 2019-11-26_21:14:45 on domain   1:    2.21739 elapsed seconds
Timing for main: time 2019-11-26_21:15:00 on domain   1:    2.24350 elapsed seconds
Timing for main: time 2019-11-26_21:15:15 on domain   1:    2.21887 elapsed seconds
Timing for main: time 2019-11-26_21:15:30 on domain   1:    2.24812 elapsed seconds
Timing for main: time 2019-11-26_21:15:45 on domain   1:    2.22280 elapsed seconds
Timing for main: time 2019-11-26_21:16:00 on domain   1:    2.22398 elapsed seconds
Timing for main: time 2019-11-26_21:16:15 on domain   1:    2.22001 elapsed seconds
Timing for main: time 2019-11-26_21:16:30 on domain   1:    2.22138 elapsed seconds
Timing for main: time 2019-11-26_21:16:45 on domain   1:    2.24245 elapsed seconds
Timing for main: time 2019-11-26_21:17:00 on domain   1:    2.24482 elapsed seconds
Timing for main: time 2019-11-26_21:17:15 on domain   1:    2.95385 elapsed seconds
Timing for main: time 2019-11-26_21:17:30 on domain   1:    2.20830 elapsed seconds
Timing for main: time 2019-11-26_21:17:45 on domain   1:    2.21812 elapsed seconds
Timing for main: time 2019-11-26_21:18:00 on domain   1:    2.22357 elapsed seconds
Timing for main: time 2019-11-26_21:18:15 on domain   1:    2.22203 elapsed seconds
Timing for main: time 2019-11-26_21:18:30 on domain   1:    2.22576 elapsed seconds
Timing for main: time 2019-11-26_21:18:45 on domain   1:    2.22439 elapsed seconds
Timing for main: time 2019-11-26_21:19:00 on domain   1:    2.24593 elapsed seconds
Timing for main: time 2019-11-26_21:19:15 on domain   1:    2.22082 elapsed seconds
Timing for main: time 2019-11-26_21:19:30 on domain   1:    2.22755 elapsed seconds
Timing for main: time 2019-11-26_21:19:45 on domain   1:    2.22202 elapsed seconds
Timing for main: time 2019-11-26_21:20:00 on domain   1:    2.23156 elapsed seconds
Timing for main: time 2019-11-26_21:20:15 on domain   1:   16.87508 elapsed seconds
Timing for main: time 2019-11-26_21:20:30 on domain   1:    2.24971 elapsed seconds
Timing for main: time 2019-11-26_21:20:45 on domain   1:    2.54694 elapsed seconds
Timing for main: time 2019-11-26_21:21:00 on domain   1:    2.25000 elapsed seconds
Timing for main: time 2019-11-26_21:21:15 on domain   1:    2.22958 elapsed seconds
Timing for main: time 2019-11-26_21:21:30 on domain   1:    2.23805 elapsed seconds
Timing for main: time 2019-11-26_21:21:45 on domain   1:    2.23496 elapsed seconds
Timing for main: time 2019-11-26_21:22:00 on domain   1:    2.23433 elapsed seconds
Timing for main: time 2019-11-26_21:22:15 on domain   1:    2.23582 elapsed seconds
Timing for main: time 2019-11-26_21:22:30 on domain   1:    2.23658 elapsed seconds
Timing for main: time 2019-11-26_21:22:45 on domain   1:    2.23308 elapsed seconds
Timing for main: time 2019-11-26_21:23:00 on domain   1:    2.21981 elapsed seconds
Timing for main: time 2019-11-26_21:23:15 on domain   1:    2.23454 elapsed seconds
Timing for main: time 2019-11-26_21:23:30 on domain   1:    2.21406 elapsed seconds
Timing for main: time 2019-11-26_21:23:45 on domain   1:    2.22209 elapsed seconds
Timing for main: time 2019-11-26_21:24:00 on domain   1:    2.23848 elapsed seconds
Timing for main: time 2019-11-26_21:24:15 on domain   1:    2.22147 elapsed seconds
Timing for main: time 2019-11-26_21:24:30 on domain   1:    2.23439 elapsed seconds
Timing for main: time 2019-11-26_21:24:45 on domain   1:    2.23833 elapsed seconds
Timing for main: time 2019-11-26_21:25:00 on domain   1:    2.21110 elapsed seconds
Timing for main: time 2019-11-26_21:25:15 on domain   1:    2.22298 elapsed seconds
Timing for main: time 2019-11-26_21:25:30 on domain   1:    2.23784 elapsed seconds
Timing for main: time 2019-11-26_21:25:45 on domain   1:    2.23695 elapsed seconds
Timing for main: time 2019-11-26_21:26:00 on domain   1:    2.22573 elapsed seconds
Timing for main: time 2019-11-26_21:26:15 on domain   1:    2.23448 elapsed seconds
Timing for main: time 2019-11-26_21:26:30 on domain   1:    2.21281 elapsed seconds
Timing for main: time 2019-11-26_21:26:45 on domain   1:    2.21832 elapsed seconds
Timing for main: time 2019-11-26_21:27:00 on domain   1:    2.24131 elapsed seconds
Timing for main: time 2019-11-26_21:27:15 on domain   1:    2.20700 elapsed seconds
Timing for main: time 2019-11-26_21:27:30 on domain   1:    2.23031 elapsed seconds
Timing for main: time 2019-11-26_21:27:45 on domain   1:    2.26156 elapsed seconds
Timing for main: time 2019-11-26_21:28:00 on domain   1:    2.22177 elapsed seconds
Timing for main: time 2019-11-26_21:28:15 on domain   1:    2.23708 elapsed seconds
Timing for main: time 2019-11-26_21:28:30 on domain   1:    2.23804 elapsed seconds
Timing for main: time 2019-11-26_21:28:45 on domain   1:    2.20775 elapsed seconds
Timing for main: time 2019-11-26_21:29:00 on domain   1:    2.22854 elapsed seconds
Timing for main: time 2019-11-26_21:29:15 on domain   1:    2.95326 elapsed seconds
Timing for main: time 2019-11-26_21:29:30 on domain   1:    2.18328 elapsed seconds
Timing for main: time 2019-11-26_21:29:45 on domain   1:    2.22744 elapsed seconds
Timing for main: time 2019-11-26_21:30:00 on domain   1:    2.23949 elapsed seconds
Timing for main: time 2019-11-26_21:30:15 on domain   1:   16.80060 elapsed seconds
Timing for main: time 2019-11-26_21:30:30 on domain   1:    2.21589 elapsed seconds
Timing for main: time 2019-11-26_21:30:45 on domain   1:    2.21736 elapsed seconds
Timing for main: time 2019-11-26_21:31:00 on domain   1:    2.22282 elapsed seconds
Timing for main: time 2019-11-26_21:31:15 on domain   1:    2.22621 elapsed seconds
Timing for main: time 2019-11-26_21:31:30 on domain   1:    2.24852 elapsed seconds
Timing for main: time 2019-11-26_21:31:45 on domain   1:    2.21648 elapsed seconds
Timing for main: time 2019-11-26_21:32:00 on domain   1:    2.22427 elapsed seconds
Timing for main: time 2019-11-26_21:32:15 on domain   1:    2.22866 elapsed seconds
Timing for main: time 2019-11-26_21:32:30 on domain   1:    2.60092 elapsed seconds
Timing for main: time 2019-11-26_21:32:45 on domain   1:    2.21859 elapsed seconds
Timing for main: time 2019-11-26_21:33:00 on domain   1:    2.22501 elapsed seconds
Timing for main: time 2019-11-26_21:33:15 on domain   1:    2.22129 elapsed seconds
Timing for main: time 2019-11-26_21:33:30 on domain   1:    2.22386 elapsed seconds
Timing for main: time 2019-11-26_21:33:45 on domain   1:    2.22396 elapsed seconds
Timing for main: time 2019-11-26_21:34:00 on domain   1:    2.23077 elapsed seconds
Timing for main: time 2019-11-26_21:34:15 on domain   1:    2.22230 elapsed seconds
Timing for main: time 2019-11-26_21:34:30 on domain   1:    2.24820 elapsed seconds
Timing for main: time 2019-11-26_21:34:45 on domain   1:    2.22158 elapsed seconds
Timing for main: time 2019-11-26_21:35:00 on domain   1:    2.22293 elapsed seconds
Timing for main: time 2019-11-26_21:35:15 on domain   1:    2.22355 elapsed seconds
Timing for main: time 2019-11-26_21:35:30 on domain   1:    2.23138 elapsed seconds
Timing for main: time 2019-11-26_21:35:45 on domain   1:    2.22325 elapsed seconds
Timing for main: time 2019-11-26_21:36:00 on domain   1:    2.25293 elapsed seconds
Timing for main: time 2019-11-26_21:36:15 on domain   1:    2.22000 elapsed seconds
Timing for main: time 2019-11-26_21:36:30 on domain   1:    2.22568 elapsed seconds
Timing for main: time 2019-11-26_21:36:45 on domain   1:    2.24401 elapsed seconds
Timing for main: time 2019-11-26_21:37:00 on domain   1:    2.22506 elapsed seconds
Timing for main: time 2019-11-26_21:37:15 on domain   1:    2.22406 elapsed seconds
Timing for main: time 2019-11-26_21:37:30 on domain   1:    2.23089 elapsed seconds
Timing for main: time 2019-11-26_21:37:45 on domain   1:    2.24075 elapsed seconds
Timing for main: time 2019-11-26_21:38:00 on domain   1:    2.22303 elapsed seconds
Timing for main: time 2019-11-26_21:38:15 on domain   1:    2.22558 elapsed seconds
Timing for main: time 2019-11-26_21:38:30 on domain   1:    2.22562 elapsed seconds
Timing for main: time 2019-11-26_21:38:45 on domain   1:    2.22520 elapsed seconds
Timing for main: time 2019-11-26_21:39:00 on domain   1:    2.24443 elapsed seconds
Timing for main: time 2019-11-26_21:39:15 on domain   1:    2.23215 elapsed seconds
Timing for main: time 2019-11-26_21:39:30 on domain   1:    2.22720 elapsed seconds
Timing for main: time 2019-11-26_21:39:45 on domain   1:    2.22046 elapsed seconds
Timing for main: time 2019-11-26_21:40:00 on domain   1:    2.22237 elapsed seconds
Timing for main: time 2019-11-26_21:40:15 on domain   1:   17.53977 elapsed seconds
Timing for main: time 2019-11-26_21:40:30 on domain   1:    2.21542 elapsed seconds
Timing for main: time 2019-11-26_21:40:45 on domain   1:    2.23236 elapsed seconds
Timing for main: time 2019-11-26_21:41:00 on domain   1:    2.21415 elapsed seconds
Timing for main: time 2019-11-26_21:41:15 on domain   1:    2.25535 elapsed seconds
Timing for main: time 2019-11-26_21:41:30 on domain   1:    2.21351 elapsed seconds
Timing for main: time 2019-11-26_21:41:45 on domain   1:    2.23001 elapsed seconds
Timing for main: time 2019-11-26_21:42:00 on domain   1:    2.21319 elapsed seconds
Timing for main: time 2019-11-26_21:42:15 on domain   1:    2.23340 elapsed seconds
Timing for main: time 2019-11-26_21:42:30 on domain   1:    2.21170 elapsed seconds
Timing for main: time 2019-11-26_21:42:45 on domain   1:    2.23190 elapsed seconds
Timing for main: time 2019-11-26_21:43:00 on domain   1:    2.23819 elapsed seconds
Timing for main: time 2019-11-26_21:43:15 on domain   1:    2.23121 elapsed seconds
Timing for main: time 2019-11-26_21:43:30 on domain   1:    2.21164 elapsed seconds
Timing for main: time 2019-11-26_21:43:45 on domain   1:    2.22967 elapsed seconds
[...]
Timing for main: time 2019-11-26_23:01:30 on domain   1:    2.25092 elapsed seconds
Timing for main: time 2019-11-26_23:01:45 on domain   1:    2.24553 elapsed seconds
Timing for main: time 2019-11-26_23:02:00 on domain   1:    2.23913 elapsed seconds
Timing for main: time 2019-11-26_23:02:15 on domain   1:    2.24238 elapsed seconds
Timing for main: time 2019-11-26_23:02:30 on domain   1:    2.24332 elapsed seconds
Timing for main: time 2019-11-26_23:02:45 on domain   1:    2.25342 elapsed seconds
Timing for main: time 2019-11-26_23:03:00 on domain   1:    2.24314 elapsed seconds
Timing for main: time 2019-11-26_23:03:15 on domain   1:    2.24094 elapsed seconds
Timing for main: time 2019-11-26_23:03:30 on domain   1:    2.24053 elapsed seconds
Timing for main: time 2019-11-26_23:03:45 on domain   1:    2.24350 elapsed seconds
Timing for main: time 2019-11-26_23:04:00 on domain   1:    2.24971 elapsed seconds
Timing for main: time 2019-11-26_23:04:15 on domain   1:    2.24359 elapsed seconds
Timing for main: time 2019-11-26_23:04:30 on domain   1:    2.23663 elapsed seconds
Timing for main: time 2019-11-26_23:04:45 on domain   1:    2.28346 elapsed seconds
Timing for main: time 2019-11-26_23:05:00 on domain   1:    2.23447 elapsed seconds
Timing for main: time 2019-11-26_23:05:15 on domain   1:    2.25561 elapsed seconds
Timing for main: time 2019-11-26_23:05:30 on domain   1:    2.24293 elapsed seconds
Timing for main: time 2019-11-26_23:05:45 on domain   1:    2.27816 elapsed seconds
Timing for main: time 2019-11-26_23:06:00 on domain   1:    2.24228 elapsed seconds
Timing for main: time 2019-11-26_23:06:15 on domain   1:    2.28350 elapsed seconds
Timing for main: time 2019-11-26_23:06:30 on domain   1:    2.27967 elapsed seconds
Timing for main: time 2019-11-26_23:06:45 on domain   1:    2.22694 elapsed seconds
Timing for main: time 2019-11-26_23:07:00 on domain   1:    2.27496 elapsed seconds
Timing for main: time 2019-11-26_23:07:15 on domain   1:    2.27592 elapsed seconds
Timing for main: time 2019-11-26_23:07:30 on domain   1:    2.22936 elapsed seconds
Timing for main: time 2019-11-26_23:07:45 on domain   1:    2.25171 elapsed seconds
Timing for main: time 2019-11-26_23:08:00 on domain   1:    2.24474 elapsed seconds
Timing for main: time 2019-11-26_23:08:15 on domain   1:    2.24023 elapsed seconds
Timing for main: time 2019-11-26_23:08:30 on domain   1:    2.25020 elapsed seconds
Timing for main: time 2019-11-26_23:08:45 on domain   1:    2.24038 elapsed seconds
Timing for main: time 2019-11-26_23:09:00 on domain   1:    2.25143 elapsed seconds
Timing for main: time 2019-11-26_23:09:15 on domain   1:    2.24069 elapsed seconds
Timing for main: time 2019-11-26_23:09:30 on domain   1:    2.28316 elapsed seconds
Timing for main: time 2019-11-26_23:09:45 on domain   1:    2.23836 elapsed seconds
Timing for main: time 2019-11-26_23:10:00 on domain   1:    2.24101 elapsed seconds
Timing for main: time 2019-11-26_23:10:15 on domain   1:   17.05656 elapsed seconds
Timing for main: time 2019-11-26_23:10:30 on domain   1:    2.24396 elapsed seconds
Timing for main: time 2019-11-26_23:10:45 on domain   1:    2.28564 elapsed seconds
Timing for main: time 2019-11-26_23:11:00 on domain   1:    2.25984 elapsed seconds
Timing for main: time 2019-11-26_23:11:15 on domain   1:    2.28306 elapsed seconds
Timing for main: time 2019-11-26_23:11:30 on domain   1:    2.25159 elapsed seconds
Timing for main: time 2019-11-26_23:11:45 on domain   1:    2.24803 elapsed seconds
Timing for main: time 2019-11-26_23:12:00 on domain   1:    2.26918 elapsed seconds
Timing for main: time 2019-11-26_23:12:15 on domain   1:    2.63350 elapsed seconds
Timing for main: time 2019-11-26_23:12:30 on domain   1:    2.28906 elapsed seconds
Timing for main: time 2019-11-26_23:12:45 on domain   1:    2.24120 elapsed seconds
Timing for main: time 2019-11-26_23:13:00 on domain   1:    2.29461 elapsed seconds
Timing for main: time 2019-11-26_23:13:15 on domain   1:    2.24117 elapsed seconds
Timing for main: time 2019-11-26_23:13:30 on domain   1:    2.25924 elapsed seconds
Timing for main: time 2019-11-26_23:13:45 on domain   1:    2.24855 elapsed seconds
Timing for main: time 2019-11-26_23:14:00 on domain   1:    2.29086 elapsed seconds
Timing for main: time 2019-11-26_23:14:15 on domain   1:    2.24327 elapsed seconds
Timing for main: time 2019-11-26_23:14:30 on domain   1:    2.25865 elapsed seconds
Timing for main: time 2019-11-26_23:14:45 on domain   1:    2.24593 elapsed seconds
Timing for main: time 2019-11-26_23:15:00 on domain   1:    2.25574 elapsed seconds
Timing for main: time 2019-11-26_23:15:15 on domain   1:    2.28227 elapsed seconds
Timing for main: time 2019-11-26_23:15:30 on domain   1:    2.24857 elapsed seconds
Timing for main: time 2019-11-26_23:15:45 on domain   1:    2.27823 elapsed seconds
Timing for main: time 2019-11-26_23:16:00 on domain   1:    2.25224 elapsed seconds
Timing for main: time 2019-11-26_23:16:15 on domain   1:    2.25110 elapsed seconds
Timing for main: time 2019-11-26_23:16:30 on domain   1:    2.25675 elapsed seconds
Timing for main: time 2019-11-26_23:16:45 on domain   1:    2.26125 elapsed seconds
Timing for main: time 2019-11-26_23:17:00 on domain   1:    2.25923 elapsed seconds
Timing for main: time 2019-11-26_23:17:15 on domain   1:    2.25332 elapsed seconds
Timing for main: time 2019-11-26_23:17:30 on domain   1:    2.25246 elapsed seconds
Timing for main: time 2019-11-26_23:17:45 on domain   1:    2.24709 elapsed seconds
Timing for main: time 2019-11-26_23:18:00 on domain   1:    2.26107 elapsed seconds
Timing for main: time 2019-11-26_23:18:15 on domain   1:    2.24907 elapsed seconds
Timing for main: time 2019-11-26_23:18:30 on domain   1:    2.28881 elapsed seconds
Timing for main: time 2019-11-26_23:18:45 on domain   1:    2.24275 elapsed seconds
Timing for main: time 2019-11-26_23:19:00 on domain   1:    2.29159 elapsed seconds
Timing for main: time 2019-11-26_23:19:15 on domain   1:    2.24601 elapsed seconds
Timing for main: time 2019-11-26_23:19:30 on domain   1:    2.26132 elapsed seconds
Timing for main: time 2019-11-26_23:19:45 on domain   1:    2.24579 elapsed seconds
Timing for main: time 2019-11-26_23:20:00 on domain   1:    2.25869 elapsed seconds
Timing for main: time 2019-11-26_23:20:15 on domain   1:   16.70087 elapsed seconds
Timing for main: time 2019-11-26_23:20:30 on domain   1:    2.26643 elapsed seconds
Timing for main: time 2019-11-26_23:20:45 on domain   1:    2.23711 elapsed seconds
Timing for main: time 2019-11-26_23:21:00 on domain   1:    2.93876 elapsed seconds
Timing for main: time 2019-11-26_23:21:15 on domain   1:    2.16945 elapsed seconds
Timing for main: time 2019-11-26_23:21:30 on domain   1:    2.23469 elapsed seconds
Timing for main: time 2019-11-26_23:21:45 on domain   1:    2.27333 elapsed seconds
Timing for main: time 2019-11-26_23:22:00 on domain   1:    2.23614 elapsed seconds
Timing for main: time 2019-11-26_23:22:15 on domain   1:    2.23242 elapsed seconds
Timing for main: time 2019-11-26_23:22:30 on domain   1:    2.24768 elapsed seconds
Timing for main: time 2019-11-26_23:22:45 on domain   1:    2.23761 elapsed seconds
Timing for main: time 2019-11-26_23:23:00 on domain   1:    2.25139 elapsed seconds
Timing for main: time 2019-11-26_23:23:15 on domain   1:    2.23642 elapsed seconds
Timing for main: time 2019-11-26_23:23:30 on domain   1:    2.24268 elapsed seconds
Timing for main: time 2019-11-26_23:23:45 on domain   1:    2.26283 elapsed seconds
Timing for main: time 2019-11-26_23:24:00 on domain   1:    2.60470 elapsed seconds
Timing for main: time 2019-11-26_23:24:15 on domain   1:    2.24228 elapsed seconds
Timing for main: time 2019-11-26_23:24:30 on domain   1:    2.24252 elapsed seconds
Timing for main: time 2019-11-26_23:24:45 on domain   1:    2.24300 elapsed seconds
Timing for main: time 2019-11-26_23:25:00 on domain   1:    2.23398 elapsed seconds
Timing for main: time 2019-11-26_23:25:15 on domain   1:    2.24092 elapsed seconds
Timing for main: time 2019-11-26_23:25:30 on domain   1:    2.26175 elapsed seconds
Timing for main: time 2019-11-26_23:25:45 on domain   1:    2.24069 elapsed seconds
Timing for main: time 2019-11-26_23:26:00 on domain   1:    2.24348 elapsed seconds
Timing for main: time 2019-11-26_23:26:15 on domain   1:    2.24197 elapsed seconds
Timing for main: time 2019-11-26_23:26:30 on domain   1:    2.24541 elapsed seconds
Timing for main: time 2019-11-26_23:26:45 on domain   1:    2.24041 elapsed seconds
Timing for main: time 2019-11-26_23:27:00 on domain   1:    2.27678 elapsed seconds
Timing for main: time 2019-11-26_23:27:15 on domain   1:    2.23959 elapsed seconds
Timing for main: time 2019-11-26_23:27:30 on domain   1:    2.24358 elapsed seconds
Timing for main: time 2019-11-26_23:27:45 on domain   1:    2.24492 elapsed seconds
Timing for main: time 2019-11-26_23:28:00 on domain   1:    2.24407 elapsed seconds
Timing for main: time 2019-11-26_23:28:15 on domain   1:    2.24945 elapsed seconds
Timing for main: time 2019-11-26_23:28:30 on domain   1:    2.23576 elapsed seconds
Timing for main: time 2019-11-26_23:28:45 on domain   1:    2.24721 elapsed seconds
Timing for main: time 2019-11-26_23:29:00 on domain   1:    2.24420 elapsed seconds
Timing for main: time 2019-11-26_23:29:15 on domain   1:    2.24409 elapsed seconds
Timing for main: time 2019-11-26_23:29:30 on domain   1:    2.23843 elapsed seconds
Timing for main: time 2019-11-26_23:29:45 on domain   1:    2.24308 elapsed seconds
Timing for main: time 2019-11-26_23:30:00 on domain   1:    2.24856 elapsed seconds
Timing for main: time 2019-11-26_23:30:15 on domain   1:   16.75142 elapsed seconds
Timing for main: time 2019-11-26_23:30:30 on domain   1:    2.23804 elapsed seconds
Timing for main: time 2019-11-26_23:30:45 on domain   1:    2.24548 elapsed seconds
Timing for main: time 2019-11-26_23:31:00 on domain   1:    2.24692 elapsed seconds
Timing for main: time 2019-11-26_23:31:15 on domain   1:    2.25119 elapsed seconds
Timing for main: time 2019-11-26_23:31:30 on domain   1:    2.23916 elapsed seconds
Timing for main: time 2019-11-26_23:31:45 on domain   1:    2.24511 elapsed seconds
Timing for main: time 2019-11-26_23:32:00 on domain   1:    2.26005 elapsed seconds
Timing for main: time 2019-11-26_23:32:15 on domain   1:    2.23945 elapsed seconds
Timing for main: time 2019-11-26_23:32:30 on domain   1:    2.24352 elapsed seconds
Timing for main: time 2019-11-26_23:32:45 on domain   1:    2.25710 elapsed seconds
Timing for main: time 2019-11-26_23:33:00 on domain   1:    2.24475 elapsed seconds
Timing for main: time 2019-11-26_23:33:15 on domain   1:    2.93037 elapsed seconds
Timing for main: time 2019-11-26_23:33:30 on domain   1:    2.30338 elapsed seconds
Timing for main: time 2019-11-26_23:33:45 on domain   1:    2.23340 elapsed seconds
Timing for main: time 2019-11-26_23:34:00 on domain   1:    2.24934 elapsed seconds
Timing for main: time 2019-11-26_23:34:15 on domain   1:    2.25013 elapsed seconds
Timing for main: time 2019-11-26_23:34:30 on domain   1:    2.23033 elapsed seconds
Timing for main: time 2019-11-26_23:34:45 on domain   1:    2.24645 elapsed seconds
Timing for main: time 2019-11-26_23:35:00 on domain   1:    2.25652 elapsed seconds
Timing for main: time 2019-11-26_23:35:15 on domain   1:    2.24428 elapsed seconds
Timing for main: time 2019-11-26_23:35:30 on domain   1:    2.24745 elapsed seconds
Timing for main: time 2019-11-26_23:35:45 on domain   1:    2.57377 elapsed seconds
Timing for main: time 2019-11-26_23:36:00 on domain   1:    2.24886 elapsed seconds
Timing for main: time 2019-11-26_23:36:15 on domain   1:    2.24723 elapsed seconds
Timing for main: time 2019-11-26_23:36:30 on domain   1:    2.25086 elapsed seconds
Timing for main: time 2019-11-26_23:36:45 on domain   1:    2.24292 elapsed seconds
Timing for main: time 2019-11-26_23:37:00 on domain   1:    2.25172 elapsed seconds
Timing for main: time 2019-11-26_23:37:15 on domain   1:    2.25520 elapsed seconds
Timing for main: time 2019-11-26_23:37:30 on domain   1:    2.24219 elapsed seconds
Timing for main: time 2019-11-26_23:37:45 on domain   1:    2.28085 elapsed seconds
Timing for main: time 2019-11-26_23:38:00 on domain   1:    2.25340 elapsed seconds
Timing for main: time 2019-11-26_23:38:15 on domain   1:    2.24263 elapsed seconds
Timing for main: time 2019-11-26_23:38:30 on domain   1:    2.24789 elapsed seconds
Timing for main: time 2019-11-26_23:38:45 on domain   1:    2.26490 elapsed seconds
Timing for main: time 2019-11-26_23:39:00 on domain   1:    2.24868 elapsed seconds
Timing for main: time 2019-11-26_23:39:15 on domain   1:    2.24655 elapsed seconds
Timing for main: time 2019-11-26_23:39:30 on domain   1:    2.25780 elapsed seconds
Timing for main: time 2019-11-26_23:39:45 on domain   1:    2.23954 elapsed seconds
Timing for main: time 2019-11-26_23:40:00 on domain   1:    2.25457 elapsed seconds
Timing for main: time 2019-11-26_23:40:15 on domain   1:   16.73101 elapsed seconds
Timing for main: time 2019-11-26_23:40:30 on domain   1:    2.25518 elapsed seconds
Timing for main: time 2019-11-26_23:40:45 on domain   1:    2.25642 elapsed seconds
Timing for main: time 2019-11-26_23:41:00 on domain   1:    2.26468 elapsed seconds
Timing for main: time 2019-11-26_23:41:15 on domain   1:    2.26080 elapsed seconds
Timing for main: time 2019-11-26_23:41:30 on domain   1:    2.26500 elapsed seconds
Timing for main: time 2019-11-26_23:41:45 on domain   1:    2.26216 elapsed seconds
Timing for main: time 2019-11-26_23:42:00 on domain   1:    2.26612 elapsed seconds
Timing for main: time 2019-11-26_23:42:15 on domain   1:    2.26274 elapsed seconds
Timing for main: time 2019-11-26_23:42:30 on domain   1:    2.26913 elapsed seconds
Timing for main: time 2019-11-26_23:42:45 on domain   1:    2.29329 elapsed seconds
Timing for main: time 2019-11-26_23:43:00 on domain   1:    2.26581 elapsed seconds
Timing for main: time 2019-11-26_23:43:15 on domain   1:    2.27147 elapsed seconds
Timing for main: time 2019-11-26_23:43:30 on domain   1:    2.26155 elapsed seconds
Timing for main: time 2019-11-26_23:43:45 on domain   1:    2.25996 elapsed seconds
Timing for main: time 2019-11-26_23:44:00 on domain   1:    2.26155 elapsed seconds
Timing for main: time 2019-11-26_23:44:15 on domain   1:    2.26200 elapsed seconds
Timing for main: time 2019-11-26_23:44:30 on domain   1:    2.26154 elapsed seconds
Timing for main: time 2019-11-26_23:44:45 on domain   1:    2.26211 elapsed seconds
Timing for main: time 2019-11-26_23:45:00 on domain   1:    2.26317 elapsed seconds
Timing for main: time 2019-11-26_23:45:15 on domain   1:    2.25996 elapsed seconds
Timing for main: time 2019-11-26_23:45:30 on domain   1:    2.92947 elapsed seconds
Timing for main: time 2019-11-26_23:45:45 on domain   1:    2.24692 elapsed seconds
Timing for main: time 2019-11-26_23:46:00 on domain   1:    2.26242 elapsed seconds
Timing for main: time 2019-11-26_23:46:15 on domain   1:    2.25799 elapsed seconds
Timing for main: time 2019-11-26_23:46:30 on domain   1:    2.26286 elapsed seconds
Timing for main: time 2019-11-26_23:46:45 on domain   1:    2.26020 elapsed seconds
Timing for main: time 2019-11-26_23:47:00 on domain   1:    2.26419 elapsed seconds
Timing for main: time 2019-11-26_23:47:15 on domain   1:    2.25976 elapsed seconds
Timing for main: time 2019-11-26_23:47:30 on domain   1:    2.63069 elapsed seconds
Timing for main: time 2019-11-26_23:47:45 on domain   1:    2.26166 elapsed seconds
Timing for main: time 2019-11-26_23:48:00 on domain   1:    2.26016 elapsed seconds
Timing for main: time 2019-11-26_23:48:15 on domain   1:    2.26182 elapsed seconds
Timing for main: time 2019-11-26_23:48:30 on domain   1:    2.26385 elapsed seconds
Timing for main: time 2019-11-26_23:48:45 on domain   1:    2.26012 elapsed seconds
Timing for main: time 2019-11-26_23:49:00 on domain   1:    2.26327 elapsed seconds
Timing for main: time 2019-11-26_23:49:15 on domain   1:    2.25893 elapsed seconds
Timing for main: time 2019-11-26_23:49:30 on domain   1:    2.26155 elapsed seconds
Timing for main: time 2019-11-26_23:49:45 on domain   1:    2.26062 elapsed seconds
Timing for main: time 2019-11-26_23:50:00 on domain   1:    2.26376 elapsed seconds
Timing for main: time 2019-11-26_23:50:15 on domain   1:   16.82234 elapsed seconds
Timing for main: time 2019-11-26_23:50:30 on domain   1:    2.24374 elapsed seconds
Timing for main: time 2019-11-26_23:50:45 on domain   1:    2.25074 elapsed seconds
Timing for main: time 2019-11-26_23:51:00 on domain   1:    2.25497 elapsed seconds
Timing for main: time 2019-11-26_23:51:15 on domain   1:    2.28325 elapsed seconds
Timing for main: time 2019-11-26_23:51:30 on domain   1:    2.25237 elapsed seconds
Timing for main: time 2019-11-26_23:51:45 on domain   1:    2.25597 elapsed seconds
Timing for main: time 2019-11-26_23:52:00 on domain   1:    2.26394 elapsed seconds
Timing for main: time 2019-11-26_23:52:15 on domain   1:    2.25183 elapsed seconds
Timing for main: time 2019-11-26_23:52:30 on domain   1:    2.25266 elapsed seconds
Timing for main: time 2019-11-26_23:52:45 on domain   1:    2.25404 elapsed seconds
Timing for main: time 2019-11-26_23:53:00 on domain   1:    2.25168 elapsed seconds
Timing for main: time 2019-11-26_23:53:15 on domain   1:    2.25061 elapsed seconds
Timing for main: time 2019-11-26_23:53:30 on domain   1:    2.25678 elapsed seconds
Timing for main: time 2019-11-26_23:53:45 on domain   1:    2.25240 elapsed seconds
Timing for main: time 2019-11-26_23:54:00 on domain   1:    2.25692 elapsed seconds
Timing for main: time 2019-11-26_23:54:15 on domain   1:    2.25118 elapsed seconds
Timing for main: time 2019-11-26_23:54:30 on domain   1:    2.25357 elapsed seconds
Timing for main: time 2019-11-26_23:54:45 on domain   1:    2.25479 elapsed seconds
Timing for main: time 2019-11-26_23:55:00 on domain   1:    2.26726 elapsed seconds
Timing for main: time 2019-11-26_23:55:15 on domain   1:    2.25305 elapsed seconds
Timing for main: time 2019-11-26_23:55:30 on domain   1:    2.25313 elapsed seconds
Timing for main: time 2019-11-26_23:55:45 on domain   1:    2.25489 elapsed seconds
Timing for main: time 2019-11-26_23:56:00 on domain   1:    2.25138 elapsed seconds
Timing for main: time 2019-11-26_23:56:15 on domain   1:    2.25228 elapsed seconds
Timing for main: time 2019-11-26_23:56:30 on domain   1:    2.25324 elapsed seconds
Timing for main: time 2019-11-26_23:56:45 on domain   1:    2.25222 elapsed seconds
Timing for main: time 2019-11-26_23:57:00 on domain   1:    2.25246 elapsed seconds
Timing for main: time 2019-11-26_23:57:15 on domain   1:    2.25241 elapsed seconds
Timing for main: time 2019-11-26_23:57:30 on domain   1:    3.07104 elapsed seconds
Timing for main: time 2019-11-26_23:57:45 on domain   1:    2.18303 elapsed seconds
Timing for main: time 2019-11-26_23:58:00 on domain   1:    2.25001 elapsed seconds
Timing for main: time 2019-11-26_23:58:15 on domain   1:    2.25318 elapsed seconds
Timing for main: time 2019-11-26_23:58:30 on domain   1:    2.25023 elapsed seconds
Timing for main: time 2019-11-26_23:58:45 on domain   1:    2.25418 elapsed seconds
Timing for main: time 2019-11-26_23:59:00 on domain   1:    2.24564 elapsed seconds
Timing for main: time 2019-11-26_23:59:15 on domain   1:    2.25438 elapsed seconds
Timing for main: time 2019-11-26_23:59:30 on domain   1:    2.26300 elapsed seconds
Timing for main: time 2019-11-26_23:59:45 on domain   1:    2.58659 elapsed seconds
Timing for main: time 2019-11-27_00:00:00 on domain   1:    2.24876 elapsed seconds
 mediation_integrate.G        1249 DATASET=HISTORY
 mediation_integrate.G        1250  grid%id            1  grid%oid            2
Timing for Writing wrfout_d01_2019-11-27_00:00:00 for domain        1:    7.92464 elapsed seconds
wrf: SUCCESS COMPLETE WRF
